
OS:Version,
  {408700d2-470f-4112-9527-996fc0740ecb}, !- Handle
  3.5.1;                                  !- Version Identifier

OS:Facility,
  {b0b08399-ff2e-48a5-aedc-0036e5cdd5ec}; !- Handle

OS:LifeCycleCost:Parameters,
  {f079cf99-028c-4624-9fd8-a0cb24b8d3d5}, !- Handle
  ,                                       !- Analysis Type
  ,                                       !- Discounting Convention
  ,                                       !- Inflation Approach
  ,                                       !- Real Discount Rate
  ,                                       !- Nominal Discount Rate
  ,                                       !- Inflation
  ,                                       !- Base Date Month
  ,                                       !- Base Date Year
  ,                                       !- Service Date Month
  ,                                       !- Service Date Year
  ;                                       !- Length of Study Period in Years

OS:SpaceType,
  {3aebd143-981e-4cc2-8ab5-f9e87ac25796}, !- Handle
  Space Type 4,                           !- Name
  ,                                       !- Default Construction Set Name
  ,                                       !- Default Schedule Set Name
  ,                                       !- Group Rendering Name
  ,                                       !- Design Specification Outdoor Air Object Name
  ,                                       !- Standards Template
  Single-Family Detached,                 !- Standards Building Type
  living space 1;                         !- Standards Space Type

OS:SpaceType,
  {510492a7-34ea-4d7e-bbae-c826b1f6305e}, !- Handle
  Space Type 3,                           !- Name
  ,                                       !- Default Construction Set Name
  ,                                       !- Default Schedule Set Name
  ,                                       !- Group Rendering Name
  ,                                       !- Design Specification Outdoor Air Object Name
  ,                                       !- Standards Template
  ,                                       !- Standards Building Type
  attic - vented 1;                       !- Standards Space Type

OS:SpaceType,
  {fe1edacd-2a24-4880-b4e0-d1a51a8b9a39}, !- Handle
  Space Type 2,                           !- Name
  ,                                       !- Default Construction Set Name
  ,                                       !- Default Schedule Set Name
  ,                                       !- Group Rendering Name
  ,                                       !- Design Specification Outdoor Air Object Name
  ,                                       !- Standards Template
  ,                                       !- Standards Building Type
  crawlspace - unvented 1;                !- Standards Space Type

OS:SpaceType,
  {0bdc987c-c248-45fc-802c-d90b1b54f2a5}, !- Handle
  Space Type 1,                           !- Name
  ,                                       !- Default Construction Set Name
  ,                                       !- Default Schedule Set Name
  ,                                       !- Group Rendering Name
  ,                                       !- Design Specification Outdoor Air Object Name
  ,                                       !- Standards Template
  ,                                       !- Standards Building Type
  air source heat pump airloop ret air space; !- Standards Space Type

OS:OutputControl:Files,
  {1ce199b9-a7a7-45ae-9109-e86c0adcc43c}, !- Handle
  No,                                     !- Output CSV
  Yes,                                    !- Output MTR
  Yes,                                    !- Output ESO
  Yes,                                    !- Output EIO
  Yes,                                    !- Output Tabular
  Yes,                                    !- Output SQLite
  Yes,                                    !- Output JSON
  Yes,                                    !- Output AUDIT
  Yes,                                    !- Output Zone Sizing
  Yes,                                    !- Output System Sizing
  Yes,                                    !- Output DXF
  Yes,                                    !- Output BND
  Yes,                                    !- Output RDD
  Yes,                                    !- Output MDD
  Yes,                                    !- Output MTD
  Yes,                                    !- Output SHD
  Yes,                                    !- Output DFS
  Yes,                                    !- Output GLHE
  Yes,                                    !- Output DelightIn
  Yes,                                    !- Output DelightELdmp
  Yes,                                    !- Output DelightDFdmp
  Yes,                                    !- Output EDD
  Yes,                                    !- Output DBG
  Yes,                                    !- Output PerfLog
  Yes,                                    !- Output SLN
  Yes,                                    !- Output SCI
  Yes,                                    !- Output WRL
  Yes,                                    !- Output Screen
  Yes,                                    !- Output ExtShd
  Yes;                                    !- Output Tarcog

OS:Output:JSON,
  {d29c2602-e7f9-45e0-b523-3135088b77d5}, !- Handle
  TimeSeriesAndTabular,                   !- Option Type
  No,                                     !- Output JSON
  No,                                     !- Output CBOR
  Yes;                                    !- Output MessagePack

OS:EnergyManagementSystem:ProgramCallingManager,
  {d574bcb5-598c-4cce-84f6-8b5e2a70732b}, !- Handle
  total_loads_program calling manager,    !- Name
  EndOfZoneTimestepAfterZoneReporting,    !- EnergyPlus Model Calling Point
  {c94a8977-f71d-458f-992c-607dae111635}; !- Program Name 1

OS:EnergyManagementSystem:Program,
  {c94a8977-f71d-458f-992c-607dae111635}, !- Handle
  total_loads_program,                    !- Name
  Set loads_htg_tot = 0,                  !- Program Line 1
  Set loads_clg_tot = 0,                  !- Program Line 2
  If htg_load_liv > 0,                    !- Program Line 3
  Set loads_htg_tot = htg_load_tot - clg_load_tot, !- Program Line 4
  ElseIf clg_load_liv > 0,                !- Program Line 5
  Set loads_clg_tot = clg_load_tot - htg_load_tot, !- Program Line 6
  EndIf;                                  !- Program Line 7

OS:EnergyManagementSystem:Sensor,
  {c92978cc-28c2-40bc-a01a-766845c7bc5f}, !- Handle
  clg_load_tot,                           !- Name
  ,                                       !- Output Variable or Output Meter Index Key Name
  Cooling:EnergyTransfer;                 !- Output Variable or Output Meter Name

OS:EnergyManagementSystem:Sensor,
  {2c13338e-bab0-47f4-ad0e-4e97203c6528}, !- Handle
  htg_load_tot,                           !- Name
  ,                                       !- Output Variable or Output Meter Index Key Name
  Heating:EnergyTransfer;                 !- Output Variable or Output Meter Name

OS:EnergyManagementSystem:Sensor,
  {eb13ec90-a68c-4451-9664-37da26a8d317}, !- Handle
  clg_load_liv,                           !- Name
  ,                                       !- Output Variable or Output Meter Index Key Name
  Cooling:EnergyTransfer:Zone:LIVING SPACE; !- Output Variable or Output Meter Name

OS:EnergyManagementSystem:Sensor,
  {e2563ff7-a727-4557-a41e-96aebf1c086a}, !- Handle
  htg_load_liv,                           !- Name
  ,                                       !- Output Variable or Output Meter Index Key Name
  Heating:EnergyTransfer:Zone:LIVING SPACE; !- Output Variable or Output Meter Name

OS:EnergyManagementSystem:ProgramCallingManager,
  {4139d27b-b36b-4200-b748-462ea5bc4836}, !- Handle
  unmet_hours_program calling manager,    !- Name
  EndOfZoneTimestepBeforeZoneReporting,   !- EnergyPlus Model Calling Point
  {44c5aa56-39ba-43fd-b969-afb5920f1704}; !- Program Name 1

OS:EnergyManagementSystem:Program,
  {44c5aa56-39ba-43fd-b969-afb5920f1704}, !- Handle
  unmet_hours_program,                    !- Name
  Set htg_unmet_hours = 0,                !- Program Line 1
  Set clg_unmet_hours = 0,                !- Program Line 2
  If (DayOfYear >= 1) && (DayOfYear <= 365), !- Program Line 3
  Set htg_unmet_hours = htg_unmet_hours + zone_htg_unmet_s, !- Program Line 4
  EndIf,                                  !- Program Line 5
  If (DayOfYear >= 1) && (DayOfYear <= 365), !- Program Line 6
  Set clg_unmet_hours = clg_unmet_hours + zone_clg_unmet_s, !- Program Line 7
  EndIf;                                  !- Program Line 8

OS:EnergyManagementSystem:Sensor,
  {0ec7c406-0795-4bc7-acf4-a44374f1576d}, !- Handle
  zone_clg_unmet_s,                       !- Name
  living space,                           !- Output Variable or Output Meter Index Key Name
  Zone Cooling Setpoint Not Met Time;     !- Output Variable or Output Meter Name

OS:EnergyManagementSystem:Sensor,
  {a75daf53-c999-4332-a02e-1353b5b7c07d}, !- Handle
  zone_htg_unmet_s,                       !- Name
  living space,                           !- Output Variable or Output Meter Index Key Name
  Zone Heating Setpoint Not Met Time;     !- Output Variable or Output Meter Name

OS:AdditionalProperties,
  {9dea5116-50f8-42c9-a20b-1b6064eb4407}, !- Handle
  {eee63b52-d96d-4845-900c-527f4c3f9c44}, !- Object Name
  hpxml_path,                             !- Feature Name 1
  String,                                 !- Feature Data Type 1
  /home/psalter/urbanTest/run/baseline_scenario/15/hpxml.xml, !- Feature Value 1
  hpxml_defaults_path,                    !- Feature Name 2
  String,                                 !- Feature Data Type 2
  /home/psalter/urbanTest/run/baseline_scenario/15/in.xml, !- Feature Value 2
  building_id,                            !- Feature Name 3
  String,                                 !- Feature Data Type 3
  ,                                       !- Feature Value 3
  emissions_scenario_names,               !- Feature Name 4
  String,                                 !- Feature Data Type 4
  ["BEopt"],                              !- Feature Value 4
  emissions_scenario_types,               !- Feature Name 5
  String,                                 !- Feature Data Type 5
  ["CO2e"],                               !- Feature Value 5
  has_heating,                            !- Feature Name 6
  Boolean,                                !- Feature Data Type 6
  true,                                   !- Feature Value 6
  has_cooling,                            !- Feature Name 7
  Boolean,                                !- Feature Data Type 7
  true,                                   !- Feature Value 7
  NumberOfConditionedStories,             !- Feature Name 8
  Integer,                                !- Feature Data Type 8
  1;                                      !- Feature Value 8

OS:Building,
  {eee63b52-d96d-4845-900c-527f4c3f9c44}, !- Handle
  Building 15,                             !- Name
  ,                                       !- Building Sector Type
  ,                                       !- North Axis {deg}
  8,                                      !- Nominal Floor to Floor Height {m}
  ,                                       !- Space Type Name
  ,                                       !- Default Construction Set Name
  ,                                       !- Default Schedule Set Name
  1,                                      !- Standards Number of Stories
  1,                                      !- Standards Number of Above Ground Stories
  ,                                       !- Standards Template
  Residential,                            !- Standards Building Type
  1;                                      !- Standards Number of Living Units

OS:EnergyManagementSystem:ProgramCallingManager,
  {95ef8b9c-0e39-4427-b55e-b97597c5a37c}, !- Handle
  infil_program calling manager,          !- Name
  BeginZoneTimestepAfterInitHeatBalance,  !- EnergyPlus Model Calling Point
  {04506a6c-2198-44bc-abaa-83b4624034b8}; !- Program Name 1

OS:EnergyManagementSystem:Sensor,
  {3524624c-f729-44c7-9aeb-10184b525bd9}, !- Handle
  clothes_dryer_exhaust_0_sch_s,          !- Name
  clothes dryer 1,                        !- Output Variable or Output Meter Index Key Name
  Schedule Value;                         !- Output Variable or Output Meter Name

OS:Schedule:Day,
  {ef788914-6dcc-40ce-af28-0ef8093d28dd}, !- Handle
  clothes dryer allday1 1,                !- Name
  {18c3ad20-c75f-431b-830d-a3f356c1115b}, !- Schedule Type Limits Name
  ,                                       !- Interpolate to Timestep
  1,                                      !- Hour 1
  0,                                      !- Minute 1
  0.123456790123457,                      !- Value Until Time 1
  2,                                      !- Hour 2
  0,                                      !- Minute 2
  0.0740740740740741,                     !- Value Until Time 2
  3,                                      !- Hour 3
  0,                                      !- Minute 3
  0.0493827160493827,                     !- Value Until Time 3
  4,                                      !- Hour 4
  0,                                      !- Minute 4
  0.0246913580246914,                     !- Value Until Time 4
  5,                                      !- Hour 5
  0,                                      !- Minute 5
  0.0493827160493827,                     !- Value Until Time 5
  6,                                      !- Hour 6
  0,                                      !- Minute 6
  0.0740740740740741,                     !- Value Until Time 6
  7,                                      !- Hour 7
  0,                                      !- Minute 7
  0.197530864197531,                      !- Value Until Time 7
  8,                                      !- Hour 8
  0,                                      !- Minute 8
  0.395061728395062,                      !- Value Until Time 8
  9,                                      !- Hour 9
  0,                                      !- Minute 9
  0.592592592592593,                      !- Value Until Time 9
  10,                                     !- Hour 10
  0,                                      !- Minute 10
  0.839506172839506,                      !- Value Until Time 10
  11,                                     !- Hour 11
  0,                                      !- Minute 11
  0.962962962962963,                      !- Value Until Time 11
  12,                                     !- Hour 12
  0,                                      !- Minute 12
  1,                                      !- Value Until Time 12
  13,                                     !- Hour 13
  0,                                      !- Minute 13
  0.91358024691358,                       !- Value Until Time 13
  14,                                     !- Hour 14
  0,                                      !- Minute 14
  0.827160493827161,                      !- Value Until Time 14
  15,                                     !- Hour 15
  0,                                      !- Minute 15
  0.703703703703704,                      !- Value Until Time 15
  16,                                     !- Hour 16
  0,                                      !- Minute 16
  0.753086419753086,                      !- Value Until Time 16
  17,                                     !- Hour 17
  0,                                      !- Minute 17
  0.679012345679012,                      !- Value Until Time 17
  18,                                     !- Hour 18
  0,                                      !- Minute 18
  0.666666666666667,                      !- Value Until Time 18
  20,                                     !- Hour 19
  0,                                      !- Minute 19
  0.62962962962963,                       !- Value Until Time 19
  21,                                     !- Hour 20
  0,                                      !- Minute 20
  0.641975308641975,                      !- Value Until Time 20
  22,                                     !- Hour 21
  0,                                      !- Minute 21
  0.666666666666667,                      !- Value Until Time 21
  23,                                     !- Hour 22
  0,                                      !- Minute 22
  0.54320987654321,                       !- Value Until Time 22
  24,                                     !- Hour 23
  0,                                      !- Minute 23
  0.296296296296296;                      !- Value Until Time 23

OS:Schedule:Rule,
  {6fac0b12-f691-4695-9d74-7917f74579e0}, !- Handle
  clothes dryer allday ruleset1 1,        !- Name
  {7dbb722d-31ef-4b74-a14d-a43b4c3905c2}, !- Schedule Ruleset Name
  0,                                      !- Rule Order
  {ef788914-6dcc-40ce-af28-0ef8093d28dd}, !- Day Schedule Name
  Yes,                                    !- Apply Sunday
  Yes,                                    !- Apply Monday
  Yes,                                    !- Apply Tuesday
  Yes,                                    !- Apply Wednesday
  Yes,                                    !- Apply Thursday
  Yes,                                    !- Apply Friday
  Yes,                                    !- Apply Saturday
  DateRange,                              !- Date Specification Type
  1,                                      !- Start Month
  1,                                      !- Start Day
  12,                                     !- End Month
  31;                                     !- End Day

OS:Schedule:Day,
  {40aedee7-8566-4662-98eb-ec0990d65b6b}, !- Handle
  Schedule Day 16,                        !- Name
  {18c3ad20-c75f-431b-830d-a3f356c1115b}, !- Schedule Type Limits Name
  ,                                       !- Interpolate to Timestep
  24,                                     !- Hour 1
  0,                                      !- Minute 1
  0;                                      !- Value Until Time 1

OS:Schedule:Ruleset,
  {7dbb722d-31ef-4b74-a14d-a43b4c3905c2}, !- Handle
  clothes dryer 1,                        !- Name
  {18c3ad20-c75f-431b-830d-a3f356c1115b}, !- Schedule Type Limits Name
  {40aedee7-8566-4662-98eb-ec0990d65b6b}; !- Default Day Schedule Name

OS:EnergyManagementSystem:Actuator,
  {9b228f5f-c2e1-4b9a-91a7-e6d5b95bab50}, !- Handle
  mech_vent_house_fan_latent_load_equip_act, !- Name
  {e6a8795c-53e6-4a8e-bcf7-0e2026be884f}, !- Actuated Component Name
  OtherEquipment,                         !- Actuated Component Type
  Power Level;                            !- Actuated Component Control Type

OS:OtherEquipment,
  {e6a8795c-53e6-4a8e-bcf7-0e2026be884f}, !- Handle
  mech vent house fan latent load equip,  !- Name
  {ca978bd2-e498-46a0-a755-529fafbcb0cc}, !- Other Equipment Definition Name
  {7b8ba757-79aa-4964-86fa-e3f17774b154}, !- Space or SpaceType Name
  {3f02e0bf-0a8c-417d-8823-094b44174af5}, !- Schedule Name
  ,                                       !- Multiplier
  None,                                   !- Fuel Type
  General;                                !- End-Use Subcategory

OS:OtherEquipment:Definition,
  {ca978bd2-e498-46a0-a755-529fafbcb0cc}, !- Handle
  mech vent house fan latent load equip,  !- Name
  EquipmentLevel,                         !- Design Level Calculation Method
  0,                                      !- Design Level {W}
  ,                                       !- Watts per Space Floor Area {W/m2}
  ,                                       !- Watts per Person {W/Person}
  1,                                      !- Fraction Latent
  0,                                      !- Fraction Radiant
  0;                                      !- Fraction Lost

OS:EnergyManagementSystem:Actuator,
  {f1c36a8d-b55e-410b-83dc-955bc65f2ca8}, !- Handle
  mech_vent_house_fan_sensible_load_equip_act, !- Name
  {04ccaf1c-b951-4b10-a9ea-da6417626c3b}, !- Actuated Component Name
  OtherEquipment,                         !- Actuated Component Type
  Power Level;                            !- Actuated Component Control Type

OS:OtherEquipment,
  {04ccaf1c-b951-4b10-a9ea-da6417626c3b}, !- Handle
  mech vent house fan sensible load equip, !- Name
  {e0e7a532-7bee-408c-805c-eec334c74a92}, !- Other Equipment Definition Name
  {7b8ba757-79aa-4964-86fa-e3f17774b154}, !- Space or SpaceType Name
  {3f02e0bf-0a8c-417d-8823-094b44174af5}, !- Schedule Name
  ,                                       !- Multiplier
  None,                                   !- Fuel Type
  General;                                !- End-Use Subcategory

OS:OtherEquipment:Definition,
  {e0e7a532-7bee-408c-805c-eec334c74a92}, !- Handle
  mech vent house fan sensible load equip, !- Name
  EquipmentLevel,                         !- Design Level Calculation Method
  0,                                      !- Design Level {W}
  ,                                       !- Watts per Space Floor Area {W/m2}
  ,                                       !- Watts per Person {W/Person}
  0,                                      !- Fraction Latent
  0,                                      !- Fraction Radiant
  0;                                      !- Fraction Lost

OS:EnergyManagementSystem:Program,
  {04506a6c-2198-44bc-abaa-83b4624034b8}, !- Handle
  infil_program,                          !- Name
  Set p_m = 0.14,                         !- Program Line 1
  Set p_s = 0.22,                         !- Program Line 2
  Set s_m = 270,                          !- Program Line 3
  Set s_s = 370,                          !- Program Line 4
  Set z_m = 9.99744,                      !- Program Line 5
  Set z_s = 2.4384,                       !- Program Line 6
  Set f_t = (((s_m/z_m)^p_m)*((z_s/s_s)^p_s)), !- Program Line 7
  Set Tdiff = airflow_tin_s-airflow_tt_s, !- Program Line 8
  Set dT = @Abs Tdiff,                    !- Program Line 9
  Set c = 0.0445,                         !- Program Line 10
  Set Cs = 0.0498,                        !- Program Line 11
  Set Cw = 0.143,                         !- Program Line 12
  Set n = 0.65,                           !- Program Line 13
  Set sft = (f_t*0.5),                    !- Program Line 14
  Set temp1 = ((c*Cw)*((sft*site_vw_s)^(2*n)))^2, !- Program Line 15
  Set Qinf = (((c*Cs*(dT^n))^2)+temp1)^0.5, !- Program Line 16
  Set Qinf = (@Max Qinf 0),               !- Program Line 17
  Set mech_vent_house_fan_sensible_load_equip_act = 0.0, !- Program Line 18
  Set mech_vent_house_fan_latent_load_equip_act = 0.0, !- Program Line 19
  Set OASupInPb = out_pb_s,               !- Program Line 20
  Set OASupInTemp = airflow_tt_s,         !- Program Line 21
  Set OASupInW = out_wt_s,                !- Program Line 22
  Set OASupRho = (@RhoAirFnPbTdbW OASupInPb OASupInTemp OASupInW), !- Program Line 23
  Set OASupCp = (@CpAirFnW OASupInW),     !- Program Line 24
  Set OASupInEnth = (@HFnTdbW OASupInTemp OASupInW), !- Program Line 25
  Set ZoneTemp = airflow_tin_s,           !- Program Line 26
  Set ZoneW = airflow_win_s,              !- Program Line 27
  Set ZoneCp = (@CpAirFnW ZoneW),         !- Program Line 28
  Set ZoneAirEnth = (@HFnTdbW ZoneTemp ZoneW), !- Program Line 29
  Set mech_vent_house_fan_cfis_act = 0.0, !- Program Line 30
  Set QWHV_cfis_sup = 0.0,                !- Program Line 31
  Set QWHV_cfis_suppl_sup = 0.0,          !- Program Line 32
  Set QWHV_cfis_suppl_exh = 0.0,          !- Program Line 33
  Set Qrange = 0,                         !- Program Line 34
  Set Qbath = 0,                          !- Program Line 35
  Set Qdryer = 0,                         !- Program Line 36
  Set Qdryer = Qdryer + 0.00383 * clothes_dryer_exhaust_0_sch_s, !- Program Line 37
  Set QWHV_sup = 0.0,                     !- Program Line 38
  Set QWHV_exh = 0.0,                     !- Program Line 39
  Set Qexhaust = Qrange + Qbath + Qdryer + QWHV_exh + QWHV_cfis_suppl_exh, !- Program Line 40
  Set Qsupply = QWHV_sup + QWHV_cfis_sup + QWHV_cfis_suppl_sup, !- Program Line 41
  Set Qfan = (@Max Qexhaust Qsupply),     !- Program Line 42
  If Qfan > 0,                            !- Program Line 43
  Set Qavg = ((Qexhaust + Qsupply) / 2.0), !- Program Line 44
  If ((@Abs (Qexhaust - Qavg)) / Qavg) <= 0.1, !- Program Line 45
  Set phi = 1,                            !- Program Line 46
  Else,                                   !- Program Line 47
  Set phi = (Qinf / (Qinf + Qfan)),       !- Program Line 48
  EndIf,                                  !- Program Line 49
  Set Qinf_adj = phi * Qinf,              !- Program Line 50
  Else,                                   !- Program Line 51
  Set Qinf_adj = Qinf,                    !- Program Line 52
  EndIf,                                  !- Program Line 53
  Set infil_flow_act = Qinf_adj,          !- Program Line 54
  Set Qload = Qfan,                       !- Program Line 55
  Set Effectiveness_Sens = 0.0,           !- Program Line 56
  Set Effectiveness_Lat = 0.0,            !- Program Line 57
  Set Fan_MFR = Qload * OASupRho,         !- Program Line 58
  Set ZoneInEnth = OASupInEnth,           !- Program Line 59
  Set ZoneInTemp = OASupInTemp,           !- Program Line 60
  Set FanTotalToLv = Fan_MFR * (ZoneInEnth - ZoneAirEnth), !- Program Line 61
  Set FanSensToLv = Fan_MFR * ZoneCp * (ZoneInTemp - ZoneTemp), !- Program Line 62
  Set FanLatToLv = FanTotalToLv - FanSensToLv, !- Program Line 63
  Set mech_vent_house_fan_sensible_load_equip_act = mech_vent_house_fan_sensible_load_equip_act + FanSensToLv, !- Program Line 64
  Set mech_vent_house_fan_latent_load_equip_act = mech_vent_house_fan_latent_load_equip_act + FanLatToLv; !- Program Line 65

OS:EnergyManagementSystem:Actuator,
  {fa154840-d963-4441-a583-b2fd2522a640}, !- Handle
  infil_flow_act,                         !- Name
  {a17cae4b-8a03-4569-a507-8e73252f6881}, !- Actuated Component Name
  Zone Infiltration,                      !- Actuated Component Type
  Air Exchange Flow Rate;                 !- Actuated Component Control Type

OS:SpaceInfiltration:DesignFlowRate,
  {a17cae4b-8a03-4569-a507-8e73252f6881}, !- Handle
  infil flow,                             !- Name
  {7b8ba757-79aa-4964-86fa-e3f17774b154}, !- Space or SpaceType Name
  {3f02e0bf-0a8c-417d-8823-094b44174af5}, !- Schedule Name
  Flow/Space,                             !- Design Flow Rate Calculation Method
  0,                                      !- Design Flow Rate {m3/s}
  ,                                       !- Flow per Space Floor Area {m3/s-m2}
  ,                                       !- Flow per Exterior Surface Area {m3/s-m2}
  ,                                       !- Air Changes per Hour {1/hr}
  ,                                       !- Constant Term Coefficient
  ,                                       !- Temperature Term Coefficient
  ,                                       !- Velocity Term Coefficient
  ;                                       !- Velocity Squared Term Coefficient

OS:EnergyManagementSystem:Actuator,
  {64245ed4-0c0a-4b51-9fc7-2f41bb2d1dd1}, !- Handle
  mech_vent_house_fan_cfis_act,           !- Name
  {02c1a49d-8aad-43cf-8a89-ff8005abd51b}, !- Actuated Component Name
  ElectricEquipment,                      !- Actuated Component Type
  Electricity Rate;                       !- Actuated Component Control Type

OS:ElectricEquipment,
  {02c1a49d-8aad-43cf-8a89-ff8005abd51b}, !- Handle
  mech vent house fan cfis,               !- Name
  {1def7d14-e0ec-44cb-b1c7-94a3d4a1f975}, !- Electric Equipment Definition Name
  {7b8ba757-79aa-4964-86fa-e3f17774b154}, !- Space or SpaceType Name
  {3f02e0bf-0a8c-417d-8823-094b44174af5}, !- Schedule Name
  ,                                       !- Multiplier
  mech vent;                              !- End-Use Subcategory

OS:ElectricEquipment:Definition,
  {1def7d14-e0ec-44cb-b1c7-94a3d4a1f975}, !- Handle
  mech vent house fan cfis,               !- Name
  EquipmentLevel,                         !- Design Level Calculation Method
  0,                                      !- Design Level {W}
  ,                                       !- Watts per Space Floor Area {W/m2}
  ,                                       !- Watts per Person {W/person}
  0,                                      !- Fraction Latent
  0,                                      !- Fraction Radiant
  0;                                      !- Fraction Lost

OS:ElectricEquipment,
  {4ae806cb-003a-4aa1-b0e2-2f044ef85f2c}, !- Handle
  mech vent house fan,                    !- Name
  {62e56586-d6c2-49ac-81a5-9e6f317dcd9e}, !- Electric Equipment Definition Name
  {7b8ba757-79aa-4964-86fa-e3f17774b154}, !- Space or SpaceType Name
  {3f02e0bf-0a8c-417d-8823-094b44174af5}, !- Schedule Name
  ,                                       !- Multiplier
  mech vent;                              !- End-Use Subcategory

OS:ElectricEquipment:Definition,
  {62e56586-d6c2-49ac-81a5-9e6f317dcd9e}, !- Handle
  mech vent house fan,                    !- Name
  EquipmentLevel,                         !- Design Level Calculation Method
  0,                                      !- Design Level {W}
  ,                                       !- Watts per Space Floor Area {W/m2}
  ,                                       !- Watts per Person {W/person}
  0,                                      !- Fraction Latent
  0,                                      !- Fraction Radiant
  1;                                      !- Fraction Lost

OS:SpaceInfiltration:EffectiveLeakageArea,
  {ba45c071-c90d-4fe6-b3da-0326f7f5ca2a}, !- Handle
  infil|attic - vented 1,                 !- Name
  {ba2a4990-2a99-4bd9-a7f0-3f2987610b2d}, !- Space or SpaceType Name
  {3f02e0bf-0a8c-417d-8823-094b44174af5}, !- Schedule Name
  2821.428163584,                         !- Effective Air Leakage Area {cm2}
  0.000280837869711982,                   !- Stack Coefficient
  3.1461526703405e-05;                    !- Wind Coefficient
