New Line.515dbb6e-0620-4a16-8d18-ce0e6d597b09 Units=km Length=0.0045720000000000005 bus1=fdab9597-5c55-4a61-9601-f4b068121470.1.2 bus2=01b09f4b-da75-435b-af80-0bca45aca6e3.1.2 switch=n enabled=y phases=2 geometry=Geometry_1

New Line.7afe583a-0946-4bda-aaa9-85c812c6cfd6 Units=km Length=0.014630400000000002 bus1=0026e673-e35e-4346-920e-72220c72df5f.1.2 bus2=01b09f4b-da75-435b-af80-0bca45aca6e3.1.2 switch=n enabled=y phases=2 geometry=Geometry_1

New Line.d24f1861-1b52-4dd7-a225-72fa98810ec7 Units=km Length=0.007924800000000001 bus1=c0197704-3fa0-455a-bff3-8bf88c84f534.1.2 bus2=01b09f4b-da75-435b-af80-0bca45aca6e3.1.2 switch=n enabled=y phases=2 geometry=Geometry_1

New Line.f5c1d939-d53c-48ef-9a48-863937b10d68 Units=km Length=0.0237744 bus1=827795ca-e5a0-4934-8802-eb2052b6dd84.1.2 bus2=01b09f4b-da75-435b-af80-0bca45aca6e3.1.2 switch=n enabled=y phases=2 geometry=Geometry_1

New Line.cb125c7d-cc52-4f33-83a2-377ed4eda204 Units=km Length=0.016764 bus1=72771da5-2ad8-4b7a-8b85-dc6582b9226b.1.2 bus2=01b09f4b-da75-435b-af80-0bca45aca6e3.1.2 switch=n enabled=y phases=2 geometry=Geometry_1

New Line.261d5481-d60a-40b4-bd52-41e0c5c8a793 Units=km Length=0.0192024 bus1=55f767d9-bff0-460c-8cb6-e01d6365d76d.1.2 bus2=01b09f4b-da75-435b-af80-0bca45aca6e3.1.2 switch=n enabled=y phases=2 geometry=Geometry_1

New Line.961ae674-c968-4f68-ba84-b313ca59c7f8 Units=km Length=0.0192024 bus1=76278818-3f87-4604-b00d-3d0db2d4c03f.1.2 bus2=01b09f4b-da75-435b-af80-0bca45aca6e3.1.2 switch=n enabled=y phases=2 geometry=Geometry_1

New Line.2ddab474-17c2-46bb-ae46-f39d58dec169 Units=km Length=0.0173736 bus1=b2a270e7-bd2e-40ca-aa3e-72f6ecba4fe0.1.2 bus2=01b09f4b-da75-435b-af80-0bca45aca6e3.1.2 switch=n enabled=y phases=2 geometry=Geometry_1

New Line.e8e32e64-80ca-45e1-ab0b-a05b9528dff5 Units=km Length=0.027736800000000002 bus1=0e044f0e-e557-4f61-bfd0-1508ff21bc3a.1.2 bus2=01b09f4b-da75-435b-af80-0bca45aca6e3.1.2 switch=n enabled=y phases=2 geometry=Geometry_1

New Line.5cf9dd63-02bf-4581-8c0c-c114392eec74 Units=km Length=0.033832799999999996 bus1=28556b3f-53de-4280-9317-d39677271ee6.1.2 bus2=01b09f4b-da75-435b-af80-0bca45aca6e3.1.2 switch=n enabled=y phases=2 geometry=Geometry_1

New Line.ff612a2c-5e16-4f68-8e92-e47677400c3e Units=km Length=0.0408432 bus1=47963a83-56cc-434e-963f-947fb8fb8ae9.1 bus2=ba37373a-30bc-4f3a-9525-1d8868dfa537.1 switch=n enabled=y phases=1 geometry=Geometry_2

New Line.0101ce09-df78-48cd-b496-39f446f8f395 Units=km Length=0.03048 bus1=ba37373a-30bc-4f3a-9525-1d8868dfa537.1 bus2=26cf6bdc-057f-4d89-9395-68453c3eb072.1 switch=n enabled=y phases=1 geometry=Geometry_2

New Line.ecb090a1-8054-4e8e-8e09-74bd0727baf9 Units=km Length=0.0804672 bus1=source.1.2.3 bus2=ba37373a-30bc-4f3a-9525-1d8868dfa537.1.2.3 switch=n enabled=y phases=3 geometry=Geometry_3

New Line.798e3ccb-4786-430d-85eb-a947ce06f8e3 Units=km Length=0.0176784 bus1=bddddd65-085a-4f05-b9d2-8ac71aff7709.1.2 bus2=92162010-bf2a-429d-bea6-e857444f7c12.1.2 switch=n enabled=y phases=2 geometry=Geometry_1

New Line.f8cb8d94-4c9c-42d3-b657-bddd8ab2d3ab Units=km Length=0.010972800000000001 bus1=08722e9a-12df-4511-bf51-9192a6e36caa.1.2 bus2=92162010-bf2a-429d-bea6-e857444f7c12.1.2 switch=n enabled=y phases=2 geometry=Geometry_1

New Line.7e9f3cb0-eeb5-473d-b700-e2711798222a Units=km Length=0.0124968 bus1=dbf66fd5-74ae-4a5e-b858-e8785eaf2c85.1.2 bus2=92162010-bf2a-429d-bea6-e857444f7c12.1.2 switch=n enabled=y phases=2 geometry=Geometry_1

New Line.d767be7f-f245-4442-8f6d-2adacb484ad2 Units=km Length=0.0216408 bus1=25e3092a-8ec1-4c22-9650-54800a455163.1.2 bus2=92162010-bf2a-429d-bea6-e857444f7c12.1.2 switch=n enabled=y phases=2 geometry=Geometry_1

New Line.e4ab803f-f509-41b9-b523-eaef50bbdbc9 Units=km Length=0.024384 bus1=7dc2237c-26f8-458e-94b7-79e97fe3befc.1.2 bus2=92162010-bf2a-429d-bea6-e857444f7c12.1.2 switch=n enabled=y phases=2 geometry=Geometry_1

New Line.a0fb7b9d-bce4-483d-a621-b921a1c9384a Units=km Length=0.0371856 bus1=fb85e1d2-c70f-4d63-bb07-2793136cce03.1.2 bus2=92162010-bf2a-429d-bea6-e857444f7c12.1.2 switch=n enabled=y phases=2 geometry=Geometry_1

New Line.8722c23e-ef2b-4861-800a-6fbfac806576 Units=km Length=0.0359664 bus1=f602643a-5d12-4aa6-825b-6a6a0a7224ba.1.2 bus2=92162010-bf2a-429d-bea6-e857444f7c12.1.2 switch=n enabled=y phases=2 geometry=Geometry_1

New Line.bf0ae26f-3b87-4a98-8c17-be08ea19e182 Units=km Length=0.012192 bus1=258bdbfe-e9ea-46d9-84de-93dc2c2258a7.1.2 bus2=92162010-bf2a-429d-bea6-e857444f7c12.1.2 switch=n enabled=y phases=2 geometry=Geometry_1

New Line.c46da4d8-44c3-43ee-8c86-1ecd2dddc272 Units=km Length=0.0170688 bus1=e0b440d8-7aad-478b-adba-4b43a2af226f.1.2 bus2=92162010-bf2a-429d-bea6-e857444f7c12.1.2 switch=n enabled=y phases=2 geometry=Geometry_1

New Line.7bc7237f-2903-4b76-bdf6-167a35225778 Units=km Length=0.0042672 bus1=cad45039-84b7-4c91-a48d-28c9ed1654d9.1.2 bus2=92162010-bf2a-429d-bea6-e857444f7c12.1.2 switch=n enabled=y phases=2 geometry=Geometry_1

New Line.dd4d6e4f-dc39-4110-a59e-6f6fca28b3c0 Units=km Length=0.0045720000000000005 bus1=81ea2768-ef95-4bf9-9305-1b5162142f61.1.2 bus2=92162010-bf2a-429d-bea6-e857444f7c12.1.2 switch=n enabled=y phases=2 geometry=Geometry_1

New Line.4ea5b864-a9a5-4ede-b10c-08c877d14808 Units=km Length=0.012801600000000002 bus1=4d3e3b9f-c76e-48ee-8484-369bbecf79ff.1.2 bus2=92162010-bf2a-429d-bea6-e857444f7c12.1.2 switch=n enabled=y phases=2 geometry=Geometry_1

New Line.7d87d382-73a3-4188-9791-6f2f3c037135 Units=km Length=0.0249936 bus1=a5963b28-3abc-4b6d-a872-4fb381fdf1ff.1.2 bus2=92162010-bf2a-429d-bea6-e857444f7c12.1.2 switch=n enabled=y phases=2 geometry=Geometry_1

New Line.550fe454-6d40-4cca-a786-cef0b4202908 Units=km Length=0.02286 bus1=c298a9e0-1a23-410f-ad82-f83e489d8db5.1.2 bus2=92162010-bf2a-429d-bea6-e857444f7c12.1.2 switch=n enabled=y phases=2 geometry=Geometry_1

New Line.def73952-61ae-45bc-9660-e6535ca061bf Units=km Length=0.028346400000000004 bus1=40d5ceb9-9936-42dd-af44-d7303bd2a65d.1.2 bus2=92162010-bf2a-429d-bea6-e857444f7c12.1.2 switch=n enabled=y phases=2 geometry=Geometry_1

New Line.1fa9d3a1-6438-4cd6-9502-89024ff5a0f4 Units=km Length=0.031699200000000004 bus1=3b537efb-9ba4-40a5-af21-c1e522c4f0a0.1.2 bus2=92162010-bf2a-429d-bea6-e857444f7c12.1.2 switch=n enabled=y phases=2 geometry=Geometry_1

New Line.062b5833-af23-4d9e-b0f2-dc838dc48ee0 Units=km Length=0.04511040000000001 bus1=7012112d-8692-4d8b-b45c-c27841a4f5db.1.2 bus2=92162010-bf2a-429d-bea6-e857444f7c12.1.2 switch=n enabled=y phases=2 geometry=Geometry_1

