New Load.1 bus1=0026e673-e35e-4346-920e-72220c72df5f.1.2 kV=0.20784609690826525 model=1 kW=1.1913949962932369 kvar=0.27332475740432793 Phases=2 yearly=feature_1

New Load.2 bus1=fdab9597-5c55-4a61-9601-f4b068121470.1.2 kV=0.20784609690826525 model=1 kW=5.82273935876167 kvar=1.335828023127312 Phases=2 yearly=feature_2

New Load.5 bus1=c0197704-3fa0-455a-bff3-8bf88c84f534.1.2 kV=0.20784609690826525 model=1 kW=3.7909022131521817 kvar=0.869692613261844 Phases=2 yearly=feature_5

New Load.6 bus1=b2a270e7-bd2e-40ca-aa3e-72f6ecba4fe0.1.2 kV=0.20784609690826525 model=1 kW=1.147232319081144 kvar=0.26319314440202696 Phases=2 yearly=feature_6

New Load.7 bus1=827795ca-e5a0-4934-8802-eb2052b6dd84.1.2 kV=0.20784609690826525 model=1 kW=1.0330703460136779 kvar=0.23700259157064296 Phases=2 yearly=feature_7

New Load.8 bus1=72771da5-2ad8-4b7a-8b85-dc6582b9226b.1.2 kV=0.20784609690826525 model=1 kW=1.0330703460136779 kvar=0.23700259157064296 Phases=2 yearly=feature_8

New Load.9 bus1=55f767d9-bff0-460c-8cb6-e01d6365d76d.1.2 kV=0.20784609690826525 model=1 kW=4.035712063603525 kvar=0.9258558447618815 Phases=2 yearly=feature_9

New Load.10 bus1=76278818-3f87-4604-b00d-3d0db2d4c03f.1.2 kV=0.20784609690826525 model=1 kW=4.271485654148399 kvar=0.979946016064031 Phases=2 yearly=feature_10

New Load.11 bus1=0e044f0e-e557-4f61-bfd0-1508ff21bc3a.1.2 kV=0.20784609690826525 model=1 kW=0.8383923467590492 kvar=0.19234039550318965 Phases=2 yearly=feature_11

New Load.12 bus1=28556b3f-53de-4280-9317-d39677271ee6.1.2 kV=0.20784609690826525 model=1 kW=4.393676579753821 kvar=1.007978536934122 Phases=2 yearly=feature_12

New Load.13 bus1=bddddd65-085a-4f05-b9d2-8ac71aff7709.1.2 kV=0.20784609690826525 model=1 kW=0.9560009077456687 kvar=0.21932164983139565 Phases=2 yearly=feature_13

New Load.14 bus1=08722e9a-12df-4511-bf51-9192a6e36caa.1.2 kV=0.20784609690826525 model=1 kW=1.0321947346132192 kvar=0.2368017125386213 Phases=2 yearly=feature_14

New Load.15 bus1=dbf66fd5-74ae-4a5e-b858-e8785eaf2c85.1.2 kV=0.20784609690826525 model=1 kW=3.9563153983225563 kvar=0.9076410005295726 Phases=2 yearly=feature_15

New Load.16 bus1=25e3092a-8ec1-4c22-9650-54800a455163.1.2 kV=0.20784609690826525 model=1 kW=1.180907738810081 kvar=0.2709188155325403 Phases=2 yearly=feature_16

New Load.17 bus1=7dc2237c-26f8-458e-94b7-79e97fe3befc.1.2 kV=0.20784609690826525 model=1 kW=4.888837574165456 kvar=1.1215762598511445 Phases=2 yearly=feature_17

New Load.18 bus1=fb85e1d2-c70f-4d63-bb07-2793136cce03.1.2 kV=0.20784609690826525 model=1 kW=1.257391742024817 kvar=0.2884654492594073 Phases=2 yearly=feature_18

New Load.19 bus1=4d3e3b9f-c76e-48ee-8484-369bbecf79ff.1.2 kV=0.20784609690826525 model=1 kW=1.054977082392057 kvar=0.24202834157359768 Phases=2 yearly=feature_19

New Load.20 bus1=81ea2768-ef95-4bf9-9305-1b5162142f61.1.2 kV=0.20784609690826525 model=1 kW=0.9560009077456687 kvar=0.21932164983139565 Phases=2 yearly=feature_20

New Load.21 bus1=cad45039-84b7-4c91-a48d-28c9ed1654d9.1.2 kV=0.20784609690826525 model=1 kW=1.1056494392027738 kvar=0.25365337749827926 Phases=2 yearly=feature_21

New Load.22 bus1=258bdbfe-e9ea-46d9-84de-93dc2c2258a7.1.2 kV=0.20784609690826525 model=1 kW=4.794561684840997 kvar=1.099947887515474 Phases=2 yearly=feature_22

New Load.23 bus1=e0b440d8-7aad-478b-adba-4b43a2af226f.1.2 kV=0.20784609690826525 model=1 kW=1.2262847134158363 kvar=0.2813290074625454 Phases=2 yearly=feature_23

New Load.24 bus1=f602643a-5d12-4aa6-825b-6a6a0a7224ba.1.2 kV=0.20784609690826525 model=1 kW=4.628558070583254 kvar=1.061864046525368 Phases=2 yearly=feature_24

New Load.25 bus1=a5963b28-3abc-4b6d-a872-4fb381fdf1ff.1.2 kV=0.20784609690826525 model=1 kW=4.438111482765686 kvar=1.0181726028180564 Phases=2 yearly=feature_25

New Load.26 bus1=c298a9e0-1a23-410f-ad82-f83e489d8db5.1.2 kV=0.20784609690826525 model=1 kW=4.555875449104902 kvar=1.0451895095792756 Phases=2 yearly=feature_26

New Load.27 bus1=40d5ceb9-9936-42dd-af44-d7303bd2a65d.1.2 kV=0.20784609690826525 model=1 kW=3.8113872005592206 kvar=0.874392191681159 Phases=2 yearly=feature_27

New Load.28 bus1=3b537efb-9ba4-40a5-af21-c1e522c4f0a0.1.2 kV=0.20784609690826525 model=1 kW=5.054468404025476 kvar=1.159574578235071 Phases=2 yearly=feature_28

