New Load.1 bus1=0026e673-e35e-4346-920e-72220c72df5f.1.2 kV=0.20784609690826525 model=1 kW=1.1913949962932369 kvar=0.27332475740432793 Phases=2 yearly=feature_1

New Load.2 bus1=fdab9597-5c55-4a61-9601-f4b068121470.1.2 kV=0.20784609690826525 model=1 kW=5.82273935876167 kvar=1.335828023127312 Phases=2 yearly=feature_2

New Load.3 bus1=f25e9eab-caf2-40c8-badb-d3b278b2759d.1.2 kV=0.20784609690826525 model=1 kW=5.427985288083699 kvar=1.2452652283043337 Phases=2 yearly=feature_3

New Load.4 bus1=d6cf65bf-f242-4f11-9cc0-e5eafb98c0f1.1.2 kV=0.20784609690826525 model=1 kW=5.017182922969085 kvar=1.151020702235802 Phases=2 yearly=feature_4

New Load.5 bus1=a6e5eaad-0e9e-4609-8160-81337f5c4206.1.2 kV=0.20784609690826525 model=1 kW=3.7909022131521817 kvar=0.869692613261844 Phases=2 yearly=feature_5

New Load.6 bus1=b8574c35-1206-49d6-ad8b-8ec0435d901a.1.2 kV=0.20784609690826525 model=1 kW=1.147232319081144 kvar=0.26319314440202696 Phases=2 yearly=feature_6

New Load.7 bus1=787cc62a-58fb-417d-b1bc-d2a4548638da.1.2 kV=0.20784609690826525 model=1 kW=1.0330703460136779 kvar=0.23700259157064296 Phases=2 yearly=feature_7

New Load.8 bus1=da37b2ec-940a-48f6-97c9-778067caabb2.1.2 kV=0.20784609690826525 model=1 kW=1.0330703460136779 kvar=0.23700259157064296 Phases=2 yearly=feature_8

New Load.9 bus1=36fb6404-6c26-413a-8b13-971648e96c0e.1.2 kV=0.20784609690826525 model=1 kW=4.035712063603525 kvar=0.9258558447618815 Phases=2 yearly=feature_9

New Load.10 bus1=eeaa7bd0-449f-44e8-a317-dca7fd44ff73.1.2 kV=0.20784609690826525 model=1 kW=4.271485654148399 kvar=0.979946016064031 Phases=2 yearly=feature_10

New Load.11 bus1=e19b9e71-cee0-48b9-93b4-c80e51688f0b.1.2 kV=0.20784609690826525 model=1 kW=0.8383923467590492 kvar=0.19234039550318965 Phases=2 yearly=feature_11

New Load.12 bus1=fb392a03-b9cf-4d28-8dd5-b9e7ddf54823.1.2 kV=0.20784609690826525 model=1 kW=4.393676579753821 kvar=1.007978536934122 Phases=2 yearly=feature_12

New Load.13 bus1=aed36606-b37c-4481-a61e-737f63eb5e29.1.2 kV=0.20784609690826525 model=1 kW=0.9560009077456687 kvar=0.21932164983139565 Phases=2 yearly=feature_13

New Load.14 bus1=042e2e33-30e2-4099-8182-dedc76770bb1.1.2 kV=0.20784609690826525 model=1 kW=1.0321947346132192 kvar=0.2368017125386213 Phases=2 yearly=feature_14

New Load.15 bus1=19eb2d2d-9aaa-4131-96c2-c6b0c39339cc.1.2 kV=0.20784609690826525 model=1 kW=3.9563153983225563 kvar=0.9076410005295726 Phases=2 yearly=feature_15

New Load.16 bus1=2f5a8d74-087d-4e26-b67b-0fa8b3627950.1.2 kV=0.20784609690826525 model=1 kW=1.180907738810081 kvar=0.2709188155325403 Phases=2 yearly=feature_16

New Load.17 bus1=9eb7b9db-57b4-4401-88b3-81d748bab4a4.1.2 kV=0.20784609690826525 model=1 kW=4.888837574165456 kvar=1.1215762598511445 Phases=2 yearly=feature_17

New Load.18 bus1=5be2bad8-cd55-4900-8a27-79558b0b0828.1.2 kV=0.20784609690826525 model=1 kW=1.257391742024817 kvar=0.2884654492594073 Phases=2 yearly=feature_18

New Load.19 bus1=b78a9795-5028-4214-b138-8e936c4c1b76.1.2 kV=0.20784609690826525 model=1 kW=1.054977082392057 kvar=0.24202834157359768 Phases=2 yearly=feature_19

New Load.20 bus1=f642e6b1-bb12-4b49-a17f-ad94544e4974.1.2 kV=0.20784609690826525 model=1 kW=0.9560009077456687 kvar=0.21932164983139565 Phases=2 yearly=feature_20

New Load.21 bus1=c45a88f2-9f78-45c9-bf6e-6485ef58e20d.1.2 kV=0.20784609690826525 model=1 kW=1.1056494392027738 kvar=0.25365337749827926 Phases=2 yearly=feature_21

New Load.22 bus1=3b266e5d-85c7-4d12-9f05-aa0915c74e7a.1.2 kV=0.20784609690826525 model=1 kW=4.794561684840997 kvar=1.099947887515474 Phases=2 yearly=feature_22

New Load.23 bus1=94be81bc-bcc3-47c5-aebb-10e4cdd3087f.1.2 kV=0.20784609690826525 model=1 kW=1.2262847134158363 kvar=0.2813290074625454 Phases=2 yearly=feature_23

New Load.24 bus1=3ea4385c-bd2e-489d-ba19-f8abb6b7a2ea.1.2 kV=0.20784609690826525 model=1 kW=4.628558070583254 kvar=1.061864046525368 Phases=2 yearly=feature_24

New Load.25 bus1=2210111a-9094-4e57-8869-f4d79a9589ae.1.2 kV=0.20784609690826525 model=1 kW=4.438111482765686 kvar=1.0181726028180564 Phases=2 yearly=feature_25

New Load.26 bus1=dbe74a95-9685-4b2b-839e-6663e14b62d6.1.2 kV=0.20784609690826525 model=1 kW=4.555875449104902 kvar=1.0451895095792756 Phases=2 yearly=feature_26

New Load.27 bus1=7592b226-7b74-4c40-bd5c-9addbdfd751c.1.2 kV=0.20784609690826525 model=1 kW=3.8113872005592206 kvar=0.874392191681159 Phases=2 yearly=feature_27

New Load.28 bus1=021d4d43-99ac-4ca1-814d-6c2731ff420f.1.2 kV=0.20784609690826525 model=1 kW=5.054468404025476 kvar=1.159574578235071 Phases=2 yearly=feature_28

