New Transformer.Xfmr1 phases=1 windings=3 wdg=1 conn=wye bus=Bus_Xfmr1_1.1 Kv=7.621023553303061 kva=50.0 %r=0.013824 wdg=2 conn=wye bus=Bus_Xfmr1_2.1.0 Kv=0.12 kva=50.0 %r=0.013824 wdg=3 conn=wye bus=Bus_Xfmr1_2.0.2 Kv=0.12 kva=50.0 %r=0.013824 XHL=0.02 XLT=0.02 XHT=0.02

New Transformer.Xfmr2 phases=1 windings=3 wdg=1 conn=wye bus=Bus_Xfmr2_1.1 Kv=7.621023553303061 kva=50.0 %r=0.013824 wdg=2 conn=wye bus=Bus_Xfmr2_2.1.0 Kv=0.12 kva=50.0 %r=0.013824 wdg=3 conn=wye bus=Bus_Xfmr2_2.0.2 Kv=0.12 kva=50.0 %r=0.013824 XHL=0.02 XLT=0.02 XHT=0.02

