
OS:Version,
  {a5cd68a2-3a79-4c6b-acd3-63adf7e832f0}, !- Handle
  3.5.1;                                  !- Version Identifier

OS:Facility,
  {5e02b38f-39a5-47b4-a3d7-2dde2c740f0e}; !- Handle

OS:LifeCycleCost:Parameters,
  {bf7c2e30-ebb9-4f9d-9fd3-ac289f6df71a}, !- Handle
  ,                                       !- Analysis Type
  ,                                       !- Discounting Convention
  ,                                       !- Inflation Approach
  ,                                       !- Real Discount Rate
  ,                                       !- Nominal Discount Rate
  ,                                       !- Inflation
  ,                                       !- Base Date Month
  ,                                       !- Base Date Year
  ,                                       !- Service Date Month
  ,                                       !- Service Date Year
  ;                                       !- Length of Study Period in Years

OS:SpaceType,
  {07294af9-84f0-47d9-a1c7-d3405f3bc678}, !- Handle
  Space Type 4,                           !- Name
  ,                                       !- Default Construction Set Name
  ,                                       !- Default Schedule Set Name
  ,                                       !- Group Rendering Name
  ,                                       !- Design Specification Outdoor Air Object Name
  ,                                       !- Standards Template
  Single-Family Detached,                 !- Standards Building Type
  living space 1;                         !- Standards Space Type

OS:SpaceType,
  {d5775a2b-3e39-460e-b46a-ad411988caf4}, !- Handle
  Space Type 3,                           !- Name
  ,                                       !- Default Construction Set Name
  ,                                       !- Default Schedule Set Name
  ,                                       !- Group Rendering Name
  ,                                       !- Design Specification Outdoor Air Object Name
  ,                                       !- Standards Template
  ,                                       !- Standards Building Type
  attic - vented 1;                       !- Standards Space Type

OS:SpaceType,
  {4673d421-133c-44fa-baed-5bff07eeeab4}, !- Handle
  Space Type 2,                           !- Name
  ,                                       !- Default Construction Set Name
  ,                                       !- Default Schedule Set Name
  ,                                       !- Group Rendering Name
  ,                                       !- Design Specification Outdoor Air Object Name
  ,                                       !- Standards Template
  ,                                       !- Standards Building Type
  crawlspace - unvented 1;                !- Standards Space Type

OS:SpaceType,
  {4cdb6250-8198-4ccf-92a6-c9e8a8e09d59}, !- Handle
  Space Type 1,                           !- Name
  ,                                       !- Default Construction Set Name
  ,                                       !- Default Schedule Set Name
  ,                                       !- Group Rendering Name
  ,                                       !- Design Specification Outdoor Air Object Name
  ,                                       !- Standards Template
  ,                                       !- Standards Building Type
  air source heat pump airloop ret air space; !- Standards Space Type

OS:OutputControl:Files,
  {9fd886f2-32fb-4570-b2ef-113791488df8}, !- Handle
  No,                                     !- Output CSV
  Yes,                                    !- Output MTR
  Yes,                                    !- Output ESO
  Yes,                                    !- Output EIO
  Yes,                                    !- Output Tabular
  Yes,                                    !- Output SQLite
  Yes,                                    !- Output JSON
  Yes,                                    !- Output AUDIT
  Yes,                                    !- Output Zone Sizing
  Yes,                                    !- Output System Sizing
  Yes,                                    !- Output DXF
  Yes,                                    !- Output BND
  Yes,                                    !- Output RDD
  Yes,                                    !- Output MDD
  Yes,                                    !- Output MTD
  Yes,                                    !- Output SHD
  Yes,                                    !- Output DFS
  Yes,                                    !- Output GLHE
  Yes,                                    !- Output DelightIn
  Yes,                                    !- Output DelightELdmp
  Yes,                                    !- Output DelightDFdmp
  Yes,                                    !- Output EDD
  Yes,                                    !- Output DBG
  Yes,                                    !- Output PerfLog
  Yes,                                    !- Output SLN
  Yes,                                    !- Output SCI
  Yes,                                    !- Output WRL
  Yes,                                    !- Output Screen
  Yes,                                    !- Output ExtShd
  Yes;                                    !- Output Tarcog

OS:Output:JSON,
  {1f34517d-3c05-4c58-8c74-dd9ee35edc80}, !- Handle
  TimeSeriesAndTabular,                   !- Option Type
  No,                                     !- Output JSON
  No,                                     !- Output CBOR
  Yes;                                    !- Output MessagePack

OS:EnergyManagementSystem:ProgramCallingManager,
  {34564c55-761a-4c4f-b192-e2a7dbd211e5}, !- Handle
  total_loads_program calling manager,    !- Name
  EndOfZoneTimestepAfterZoneReporting,    !- EnergyPlus Model Calling Point
  {3800936e-3b09-4ffb-bbc7-fddd0164ef45}; !- Program Name 1

OS:EnergyManagementSystem:Program,
  {3800936e-3b09-4ffb-bbc7-fddd0164ef45}, !- Handle
  total_loads_program,                    !- Name
  Set loads_htg_tot = 0,                  !- Program Line 1
  Set loads_clg_tot = 0,                  !- Program Line 2
  If htg_load_liv > 0,                    !- Program Line 3
  Set loads_htg_tot = htg_load_tot - clg_load_tot, !- Program Line 4
  ElseIf clg_load_liv > 0,                !- Program Line 5
  Set loads_clg_tot = clg_load_tot - htg_load_tot, !- Program Line 6
  EndIf;                                  !- Program Line 7

OS:EnergyManagementSystem:Sensor,
  {daa7fda7-ea61-4464-8ba5-c467cab9fc21}, !- Handle
  clg_load_tot,                           !- Name
  ,                                       !- Output Variable or Output Meter Index Key Name
  Cooling:EnergyTransfer;                 !- Output Variable or Output Meter Name

OS:EnergyManagementSystem:Sensor,
  {b7ec7242-2449-4094-b295-c92aacb038f2}, !- Handle
  htg_load_tot,                           !- Name
  ,                                       !- Output Variable or Output Meter Index Key Name
  Heating:EnergyTransfer;                 !- Output Variable or Output Meter Name

OS:EnergyManagementSystem:Sensor,
  {fc24452a-7e47-4933-8586-f083bed169a5}, !- Handle
  clg_load_liv,                           !- Name
  ,                                       !- Output Variable or Output Meter Index Key Name
  Cooling:EnergyTransfer:Zone:LIVING SPACE; !- Output Variable or Output Meter Name

OS:EnergyManagementSystem:Sensor,
  {91417ebe-3979-4526-818a-e54605277f8f}, !- Handle
  htg_load_liv,                           !- Name
  ,                                       !- Output Variable or Output Meter Index Key Name
  Heating:EnergyTransfer:Zone:LIVING SPACE; !- Output Variable or Output Meter Name

OS:EnergyManagementSystem:ProgramCallingManager,
  {a880b1b0-a694-4003-b78c-51673bb6e18f}, !- Handle
  unmet_hours_program calling manager,    !- Name
  EndOfZoneTimestepBeforeZoneReporting,   !- EnergyPlus Model Calling Point
  {d4cf482a-4164-45a3-9a4c-b0776621708b}; !- Program Name 1

OS:EnergyManagementSystem:Program,
  {d4cf482a-4164-45a3-9a4c-b0776621708b}, !- Handle
  unmet_hours_program,                    !- Name
  Set htg_unmet_hours = 0,                !- Program Line 1
  Set clg_unmet_hours = 0,                !- Program Line 2
  If (DayOfYear >= 1) && (DayOfYear <= 365), !- Program Line 3
  Set htg_unmet_hours = htg_unmet_hours + zone_htg_unmet_s, !- Program Line 4
  EndIf,                                  !- Program Line 5
  If (DayOfYear >= 1) && (DayOfYear <= 365), !- Program Line 6
  Set clg_unmet_hours = clg_unmet_hours + zone_clg_unmet_s, !- Program Line 7
  EndIf;                                  !- Program Line 8

OS:EnergyManagementSystem:Sensor,
  {a2871d6b-89d2-4770-acd0-b94f79d68055}, !- Handle
  zone_clg_unmet_s,                       !- Name
  living space,                           !- Output Variable or Output Meter Index Key Name
  Zone Cooling Setpoint Not Met Time;     !- Output Variable or Output Meter Name

OS:EnergyManagementSystem:Sensor,
  {258b7a34-a683-49a7-b4d7-0990cc53116d}, !- Handle
  zone_htg_unmet_s,                       !- Name
  living space,                           !- Output Variable or Output Meter Index Key Name
  Zone Heating Setpoint Not Met Time;     !- Output Variable or Output Meter Name

OS:AdditionalProperties,
  {81641b8b-1257-451b-9e16-75db248f88ca}, !- Handle
  {74df68d3-b6d5-442d-a57d-150b34662f1d}, !- Object Name
  hpxml_path,                             !- Feature Name 1
  String,                                 !- Feature Data Type 1
  /home/psalter/urbanTest/run/baseline_scenario/9/hpxml.xml, !- Feature Value 1
  hpxml_defaults_path,                    !- Feature Name 2
  String,                                 !- Feature Data Type 2
  /home/psalter/urbanTest/run/baseline_scenario/9/in.xml, !- Feature Value 2
  building_id,                            !- Feature Name 3
  String,                                 !- Feature Data Type 3
  ,                                       !- Feature Value 3
  emissions_scenario_names,               !- Feature Name 4
  String,                                 !- Feature Data Type 4
  ["BEopt"],                              !- Feature Value 4
  emissions_scenario_types,               !- Feature Name 5
  String,                                 !- Feature Data Type 5
  ["CO2e"],                               !- Feature Value 5
  has_heating,                            !- Feature Name 6
  Boolean,                                !- Feature Data Type 6
  true,                                   !- Feature Value 6
  has_cooling,                            !- Feature Name 7
  Boolean,                                !- Feature Data Type 7
  true,                                   !- Feature Value 7
  NumberOfConditionedStories,             !- Feature Name 8
  Integer,                                !- Feature Data Type 8
  1;                                      !- Feature Value 8

OS:Building,
  {74df68d3-b6d5-442d-a57d-150b34662f1d}, !- Handle
  Building 1,                             !- Name
  ,                                       !- Building Sector Type
  ,                                       !- North Axis {deg}
  8,                                      !- Nominal Floor to Floor Height {m}
  ,                                       !- Space Type Name
  ,                                       !- Default Construction Set Name
  ,                                       !- Default Schedule Set Name
  1,                                      !- Standards Number of Stories
  1,                                      !- Standards Number of Above Ground Stories
  ,                                       !- Standards Template
  Residential,                            !- Standards Building Type
  1;                                      !- Standards Number of Living Units

OS:EnergyManagementSystem:ProgramCallingManager,
  {c5247687-bd7d-421b-92d3-8810bfb2fe77}, !- Handle
  infil_program calling manager,          !- Name
  BeginZoneTimestepAfterInitHeatBalance,  !- EnergyPlus Model Calling Point
  {8ae51817-f545-44f9-bfd0-74bae9e34060}; !- Program Name 1

OS:EnergyManagementSystem:Sensor,
  {560b1c79-cc63-44a1-bd9f-62f7648d294d}, !- Handle
  clothes_dryer_exhaust_0_sch_s,          !- Name
  clothes dryer 1,                        !- Output Variable or Output Meter Index Key Name
  Schedule Value;                         !- Output Variable or Output Meter Name

OS:Schedule:Day,
  {c5a428ad-7110-454a-8563-cb776966828c}, !- Handle
  clothes dryer allday1 1,                !- Name
  {4ca5657d-ae8e-4910-ad25-327a983f18ca}, !- Schedule Type Limits Name
  ,                                       !- Interpolate to Timestep
  1,                                      !- Hour 1
  0,                                      !- Minute 1
  0.123456790123457,                      !- Value Until Time 1
  2,                                      !- Hour 2
  0,                                      !- Minute 2
  0.0740740740740741,                     !- Value Until Time 2
  3,                                      !- Hour 3
  0,                                      !- Minute 3
  0.0493827160493827,                     !- Value Until Time 3
  4,                                      !- Hour 4
  0,                                      !- Minute 4
  0.0246913580246914,                     !- Value Until Time 4
  5,                                      !- Hour 5
  0,                                      !- Minute 5
  0.0493827160493827,                     !- Value Until Time 5
  6,                                      !- Hour 6
  0,                                      !- Minute 6
  0.0740740740740741,                     !- Value Until Time 6
  7,                                      !- Hour 7
  0,                                      !- Minute 7
  0.197530864197531,                      !- Value Until Time 7
  8,                                      !- Hour 8
  0,                                      !- Minute 8
  0.395061728395062,                      !- Value Until Time 8
  9,                                      !- Hour 9
  0,                                      !- Minute 9
  0.592592592592593,                      !- Value Until Time 9
  10,                                     !- Hour 10
  0,                                      !- Minute 10
  0.839506172839506,                      !- Value Until Time 10
  11,                                     !- Hour 11
  0,                                      !- Minute 11
  0.962962962962963,                      !- Value Until Time 11
  12,                                     !- Hour 12
  0,                                      !- Minute 12
  1,                                      !- Value Until Time 12
  13,                                     !- Hour 13
  0,                                      !- Minute 13
  0.91358024691358,                       !- Value Until Time 13
  14,                                     !- Hour 14
  0,                                      !- Minute 14
  0.827160493827161,                      !- Value Until Time 14
  15,                                     !- Hour 15
  0,                                      !- Minute 15
  0.703703703703704,                      !- Value Until Time 15
  16,                                     !- Hour 16
  0,                                      !- Minute 16
  0.753086419753086,                      !- Value Until Time 16
  17,                                     !- Hour 17
  0,                                      !- Minute 17
  0.679012345679012,                      !- Value Until Time 17
  18,                                     !- Hour 18
  0,                                      !- Minute 18
  0.666666666666667,                      !- Value Until Time 18
  20,                                     !- Hour 19
  0,                                      !- Minute 19
  0.62962962962963,                       !- Value Until Time 19
  21,                                     !- Hour 20
  0,                                      !- Minute 20
  0.641975308641975,                      !- Value Until Time 20
  22,                                     !- Hour 21
  0,                                      !- Minute 21
  0.666666666666667,                      !- Value Until Time 21
  23,                                     !- Hour 22
  0,                                      !- Minute 22
  0.54320987654321,                       !- Value Until Time 22
  24,                                     !- Hour 23
  0,                                      !- Minute 23
  0.296296296296296;                      !- Value Until Time 23

OS:Schedule:Rule,
  {8bd1969f-ef44-4fc3-bcc8-aef977a6b02b}, !- Handle
  clothes dryer allday ruleset1 1,        !- Name
  {24abcb04-35a7-459c-ab3c-2a4646abccda}, !- Schedule Ruleset Name
  0,                                      !- Rule Order
  {c5a428ad-7110-454a-8563-cb776966828c}, !- Day Schedule Name
  Yes,                                    !- Apply Sunday
  Yes,                                    !- Apply Monday
  Yes,                                    !- Apply Tuesday
  Yes,                                    !- Apply Wednesday
  Yes,                                    !- Apply Thursday
  Yes,                                    !- Apply Friday
  Yes,                                    !- Apply Saturday
  DateRange,                              !- Date Specification Type
  1,                                      !- Start Month
  1,                                      !- Start Day
  12,                                     !- End Month
  31;                                     !- End Day

OS:Schedule:Day,
  {2ab23f48-0859-412e-97b1-043881ae61a3}, !- Handle
  Schedule Day 16,                        !- Name
  {4ca5657d-ae8e-4910-ad25-327a983f18ca}, !- Schedule Type Limits Name
  ,                                       !- Interpolate to Timestep
  24,                                     !- Hour 1
  0,                                      !- Minute 1
  0;                                      !- Value Until Time 1

OS:Schedule:Ruleset,
  {24abcb04-35a7-459c-ab3c-2a4646abccda}, !- Handle
  clothes dryer 1,                        !- Name
  {4ca5657d-ae8e-4910-ad25-327a983f18ca}, !- Schedule Type Limits Name
  {2ab23f48-0859-412e-97b1-043881ae61a3}; !- Default Day Schedule Name

OS:EnergyManagementSystem:Actuator,
  {8dd4cac1-4114-4aff-8e5c-1b832de04065}, !- Handle
  mech_vent_house_fan_latent_load_equip_act, !- Name
  {c296cf2e-206b-4e54-aded-80a32e07d026}, !- Actuated Component Name
  OtherEquipment,                         !- Actuated Component Type
  Power Level;                            !- Actuated Component Control Type

OS:OtherEquipment,
  {c296cf2e-206b-4e54-aded-80a32e07d026}, !- Handle
  mech vent house fan latent load equip,  !- Name
  {c63fe9db-49dc-4156-aea1-9c4fb3695757}, !- Other Equipment Definition Name
  {64943927-eb27-41d1-be25-c516fac400fe}, !- Space or SpaceType Name
  {801f4176-0799-4970-aa80-63daf74e003d}, !- Schedule Name
  ,                                       !- Multiplier
  None,                                   !- Fuel Type
  General;                                !- End-Use Subcategory

OS:OtherEquipment:Definition,
  {c63fe9db-49dc-4156-aea1-9c4fb3695757}, !- Handle
  mech vent house fan latent load equip,  !- Name
  EquipmentLevel,                         !- Design Level Calculation Method
  0,                                      !- Design Level {W}
  ,                                       !- Watts per Space Floor Area {W/m2}
  ,                                       !- Watts per Person {W/Person}
  1,                                      !- Fraction Latent
  0,                                      !- Fraction Radiant
  0;                                      !- Fraction Lost

OS:EnergyManagementSystem:Actuator,
  {e8b4231f-9a50-4f41-8e37-bd5921dddf46}, !- Handle
  mech_vent_house_fan_sensible_load_equip_act, !- Name
  {c2f14f5e-8d90-46ba-a050-371ce3cb637f}, !- Actuated Component Name
  OtherEquipment,                         !- Actuated Component Type
  Power Level;                            !- Actuated Component Control Type

OS:OtherEquipment,
  {c2f14f5e-8d90-46ba-a050-371ce3cb637f}, !- Handle
  mech vent house fan sensible load equip, !- Name
  {14318f99-a06f-4a4e-9256-9c4074d888c3}, !- Other Equipment Definition Name
  {64943927-eb27-41d1-be25-c516fac400fe}, !- Space or SpaceType Name
  {801f4176-0799-4970-aa80-63daf74e003d}, !- Schedule Name
  ,                                       !- Multiplier
  None,                                   !- Fuel Type
  General;                                !- End-Use Subcategory

OS:OtherEquipment:Definition,
  {14318f99-a06f-4a4e-9256-9c4074d888c3}, !- Handle
  mech vent house fan sensible load equip, !- Name
  EquipmentLevel,                         !- Design Level Calculation Method
  0,                                      !- Design Level {W}
  ,                                       !- Watts per Space Floor Area {W/m2}
  ,                                       !- Watts per Person {W/Person}
  0,                                      !- Fraction Latent
  0,                                      !- Fraction Radiant
  0;                                      !- Fraction Lost

OS:EnergyManagementSystem:Program,
  {8ae51817-f545-44f9-bfd0-74bae9e34060}, !- Handle
  infil_program,                          !- Name
  Set p_m = 0.14,                         !- Program Line 1
  Set p_s = 0.22,                         !- Program Line 2
  Set s_m = 270,                          !- Program Line 3
  Set s_s = 370,                          !- Program Line 4
  Set z_m = 9.99744,                      !- Program Line 5
  Set z_s = 2.4384,                       !- Program Line 6
  Set f_t = (((s_m/z_m)^p_m)*((z_s/s_s)^p_s)), !- Program Line 7
  Set Tdiff = airflow_tin_s-airflow_tt_s, !- Program Line 8
  Set dT = @Abs Tdiff,                    !- Program Line 9
  Set c = 0.0561,                         !- Program Line 10
  Set Cs = 0.0498,                        !- Program Line 11
  Set Cw = 0.143,                         !- Program Line 12
  Set n = 0.65,                           !- Program Line 13
  Set sft = (f_t*0.5),                    !- Program Line 14
  Set temp1 = ((c*Cw)*((sft*site_vw_s)^(2*n)))^2, !- Program Line 15
  Set Qinf = (((c*Cs*(dT^n))^2)+temp1)^0.5, !- Program Line 16
  Set Qinf = (@Max Qinf 0),               !- Program Line 17
  Set mech_vent_house_fan_sensible_load_equip_act = 0.0, !- Program Line 18
  Set mech_vent_house_fan_latent_load_equip_act = 0.0, !- Program Line 19
  Set OASupInPb = out_pb_s,               !- Program Line 20
  Set OASupInTemp = airflow_tt_s,         !- Program Line 21
  Set OASupInW = out_wt_s,                !- Program Line 22
  Set OASupRho = (@RhoAirFnPbTdbW OASupInPb OASupInTemp OASupInW), !- Program Line 23
  Set OASupCp = (@CpAirFnW OASupInW),     !- Program Line 24
  Set OASupInEnth = (@HFnTdbW OASupInTemp OASupInW), !- Program Line 25
  Set ZoneTemp = airflow_tin_s,           !- Program Line 26
  Set ZoneW = airflow_win_s,              !- Program Line 27
  Set ZoneCp = (@CpAirFnW ZoneW),         !- Program Line 28
  Set ZoneAirEnth = (@HFnTdbW ZoneTemp ZoneW), !- Program Line 29
  Set mech_vent_house_fan_cfis_act = 0.0, !- Program Line 30
  Set QWHV_cfis_sup = 0.0,                !- Program Line 31
  Set QWHV_cfis_suppl_sup = 0.0,          !- Program Line 32
  Set QWHV_cfis_suppl_exh = 0.0,          !- Program Line 33
  Set Qrange = 0,                         !- Program Line 34
  Set Qbath = 0,                          !- Program Line 35
  Set Qdryer = 0,                         !- Program Line 36
  Set Qdryer = Qdryer + 0.00383 * clothes_dryer_exhaust_0_sch_s, !- Program Line 37
  Set QWHV_sup = 0.0,                     !- Program Line 38
  Set QWHV_exh = 0.0,                     !- Program Line 39
  Set Qexhaust = Qrange + Qbath + Qdryer + QWHV_exh + QWHV_cfis_suppl_exh, !- Program Line 40
  Set Qsupply = QWHV_sup + QWHV_cfis_sup + QWHV_cfis_suppl_sup, !- Program Line 41
  Set Qfan = (@Max Qexhaust Qsupply),     !- Program Line 42
  If Qfan > 0,                            !- Program Line 43
  Set Qavg = ((Qexhaust + Qsupply) / 2.0), !- Program Line 44
  If ((@Abs (Qexhaust - Qavg)) / Qavg) <= 0.1, !- Program Line 45
  Set phi = 1,                            !- Program Line 46
  Else,                                   !- Program Line 47
  Set phi = (Qinf / (Qinf + Qfan)),       !- Program Line 48
  EndIf,                                  !- Program Line 49
  Set Qinf_adj = phi * Qinf,              !- Program Line 50
  Else,                                   !- Program Line 51
  Set Qinf_adj = Qinf,                    !- Program Line 52
  EndIf,                                  !- Program Line 53
  Set infil_flow_act = Qinf_adj,          !- Program Line 54
  Set Qload = Qfan,                       !- Program Line 55
  Set Effectiveness_Sens = 0.0,           !- Program Line 56
  Set Effectiveness_Lat = 0.0,            !- Program Line 57
  Set Fan_MFR = Qload * OASupRho,         !- Program Line 58
  Set ZoneInEnth = OASupInEnth,           !- Program Line 59
  Set ZoneInTemp = OASupInTemp,           !- Program Line 60
  Set FanTotalToLv = Fan_MFR * (ZoneInEnth - ZoneAirEnth), !- Program Line 61
  Set FanSensToLv = Fan_MFR * ZoneCp * (ZoneInTemp - ZoneTemp), !- Program Line 62
  Set FanLatToLv = FanTotalToLv - FanSensToLv, !- Program Line 63
  Set mech_vent_house_fan_sensible_load_equip_act = mech_vent_house_fan_sensible_load_equip_act + FanSensToLv, !- Program Line 64
  Set mech_vent_house_fan_latent_load_equip_act = mech_vent_house_fan_latent_load_equip_act + FanLatToLv; !- Program Line 65

OS:EnergyManagementSystem:Actuator,
  {a868d71e-eb20-4a17-ba7a-e02ee6aead71}, !- Handle
  infil_flow_act,                         !- Name
  {83bff669-2de6-4e00-b671-b341375c5d71}, !- Actuated Component Name
  Zone Infiltration,                      !- Actuated Component Type
  Air Exchange Flow Rate;                 !- Actuated Component Control Type

OS:SpaceInfiltration:DesignFlowRate,
  {83bff669-2de6-4e00-b671-b341375c5d71}, !- Handle
  infil flow,                             !- Name
  {64943927-eb27-41d1-be25-c516fac400fe}, !- Space or SpaceType Name
  {801f4176-0799-4970-aa80-63daf74e003d}, !- Schedule Name
  Flow/Space,                             !- Design Flow Rate Calculation Method
  0,                                      !- Design Flow Rate {m3/s}
  ,                                       !- Flow per Space Floor Area {m3/s-m2}
  ,                                       !- Flow per Exterior Surface Area {m3/s-m2}
  ,                                       !- Air Changes per Hour {1/hr}
  ,                                       !- Constant Term Coefficient
  ,                                       !- Temperature Term Coefficient
  ,                                       !- Velocity Term Coefficient
  ;                                       !- Velocity Squared Term Coefficient

OS:EnergyManagementSystem:Actuator,
  {2a142a32-e806-4e57-b441-f163c7cf58a0}, !- Handle
  mech_vent_house_fan_cfis_act,           !- Name
  {ea7f082d-c94d-46af-b2e0-67903acd0b52}, !- Actuated Component Name
  ElectricEquipment,                      !- Actuated Component Type
  Electricity Rate;                       !- Actuated Component Control Type

OS:ElectricEquipment,
  {ea7f082d-c94d-46af-b2e0-67903acd0b52}, !- Handle
  mech vent house fan cfis,               !- Name
  {569a529c-e0b7-4a84-8760-b3c09cd65c4a}, !- Electric Equipment Definition Name
  {64943927-eb27-41d1-be25-c516fac400fe}, !- Space or SpaceType Name
  {801f4176-0799-4970-aa80-63daf74e003d}, !- Schedule Name
  ,                                       !- Multiplier
  mech vent;                              !- End-Use Subcategory

OS:ElectricEquipment:Definition,
  {569a529c-e0b7-4a84-8760-b3c09cd65c4a}, !- Handle
  mech vent house fan cfis,               !- Name
  EquipmentLevel,                         !- Design Level Calculation Method
  0,                                      !- Design Level {W}
  ,                                       !- Watts per Space Floor Area {W/m2}
  ,                                       !- Watts per Person {W/person}
  0,                                      !- Fraction Latent
  0,                                      !- Fraction Radiant
  0;                                      !- Fraction Lost

OS:ElectricEquipment,
  {7f8d95f6-27b7-4754-8842-ff9a9ebfd525}, !- Handle
  mech vent house fan,                    !- Name
  {66963871-260c-4249-bbe1-57bf21ba7bb9}, !- Electric Equipment Definition Name
  {64943927-eb27-41d1-be25-c516fac400fe}, !- Space or SpaceType Name
  {801f4176-0799-4970-aa80-63daf74e003d}, !- Schedule Name
  ,                                       !- Multiplier
  mech vent;                              !- End-Use Subcategory

OS:ElectricEquipment:Definition,
  {66963871-260c-4249-bbe1-57bf21ba7bb9}, !- Handle
  mech vent house fan,                    !- Name
  EquipmentLevel,                         !- Design Level Calculation Method
  0,                                      !- Design Level {W}
  ,                                       !- Watts per Space Floor Area {W/m2}
  ,                                       !- Watts per Person {W/person}
  0,                                      !- Fraction Latent
  0,                                      !- Fraction Radiant
  1;                                      !- Fraction Lost

OS:SpaceInfiltration:EffectiveLeakageArea,
  {dd0c83ee-622e-4c36-9ecb-a1e5049bc82b}, !- Handle
  infil|attic - vented 1,                 !- Name
  {8885e64b-36a9-4687-9c8b-5c098965c7fc}, !- Space or SpaceType Name
  {801f4176-0799-4970-aa80-63daf74e003d}, !- Schedule Name
  1392.1520544,                           !- Effective Air Leakage Area {cm2}
  0.000247695237443683,                   !- Stack Coefficient
  2.95468227256371e-05;                   !- Wind Coefficient
