
OS:Version,
  {cdfecba6-e8eb-4d9a-8c8d-c050643f73c1}, !- Handle
  3.5.1;                                  !- Version Identifier

OS:Facility,
  {8d29f176-3581-4bb8-8bd6-7ec0270763a4}; !- Handle

OS:LifeCycleCost:Parameters,
  {bb66ef24-da42-41fb-8699-c725a969d3e3}, !- Handle
  ,                                       !- Analysis Type
  ,                                       !- Discounting Convention
  ,                                       !- Inflation Approach
  ,                                       !- Real Discount Rate
  ,                                       !- Nominal Discount Rate
  ,                                       !- Inflation
  ,                                       !- Base Date Month
  ,                                       !- Base Date Year
  ,                                       !- Service Date Month
  ,                                       !- Service Date Year
  ;                                       !- Length of Study Period in Years

OS:SpaceType,
  {caf2dd40-8d80-4abf-bd66-ee0f612c2635}, !- Handle
  Space Type 4,                           !- Name
  ,                                       !- Default Construction Set Name
  ,                                       !- Default Schedule Set Name
  ,                                       !- Group Rendering Name
  ,                                       !- Design Specification Outdoor Air Object Name
  ,                                       !- Standards Template
  Single-Family Detached,                 !- Standards Building Type
  living space 1;                         !- Standards Space Type

OS:SpaceType,
  {df763818-1faa-489f-9461-da6092f84ca7}, !- Handle
  Space Type 3,                           !- Name
  ,                                       !- Default Construction Set Name
  ,                                       !- Default Schedule Set Name
  ,                                       !- Group Rendering Name
  ,                                       !- Design Specification Outdoor Air Object Name
  ,                                       !- Standards Template
  ,                                       !- Standards Building Type
  crawlspace - unvented 1;                !- Standards Space Type

OS:SpaceType,
  {6917ac2c-627f-41cf-ae65-ef9f539fe402}, !- Handle
  Space Type 2,                           !- Name
  ,                                       !- Default Construction Set Name
  ,                                       !- Default Schedule Set Name
  ,                                       !- Group Rendering Name
  ,                                       !- Design Specification Outdoor Air Object Name
  ,                                       !- Standards Template
  ,                                       !- Standards Building Type
  attic - vented 1;                       !- Standards Space Type

OS:SpaceType,
  {6253334d-36fe-425b-bc58-7036769d0b06}, !- Handle
  Space Type 1,                           !- Name
  ,                                       !- Default Construction Set Name
  ,                                       !- Default Schedule Set Name
  ,                                       !- Group Rendering Name
  ,                                       !- Design Specification Outdoor Air Object Name
  ,                                       !- Standards Template
  ,                                       !- Standards Building Type
  air source heat pump airloop ret air space; !- Standards Space Type

OS:OutputControl:Files,
  {400918d0-522f-4a57-8872-74116a25de21}, !- Handle
  No,                                     !- Output CSV
  Yes,                                    !- Output MTR
  Yes,                                    !- Output ESO
  Yes,                                    !- Output EIO
  Yes,                                    !- Output Tabular
  Yes,                                    !- Output SQLite
  Yes,                                    !- Output JSON
  Yes,                                    !- Output AUDIT
  Yes,                                    !- Output Zone Sizing
  Yes,                                    !- Output System Sizing
  Yes,                                    !- Output DXF
  Yes,                                    !- Output BND
  Yes,                                    !- Output RDD
  Yes,                                    !- Output MDD
  Yes,                                    !- Output MTD
  Yes,                                    !- Output SHD
  Yes,                                    !- Output DFS
  Yes,                                    !- Output GLHE
  Yes,                                    !- Output DelightIn
  Yes,                                    !- Output DelightELdmp
  Yes,                                    !- Output DelightDFdmp
  Yes,                                    !- Output EDD
  Yes,                                    !- Output DBG
  Yes,                                    !- Output PerfLog
  Yes,                                    !- Output SLN
  Yes,                                    !- Output SCI
  Yes,                                    !- Output WRL
  Yes,                                    !- Output Screen
  Yes,                                    !- Output ExtShd
  Yes;                                    !- Output Tarcog

OS:Output:JSON,
  {2580df92-10ca-45bb-a73d-400684109efc}, !- Handle
  TimeSeriesAndTabular,                   !- Option Type
  No,                                     !- Output JSON
  No,                                     !- Output CBOR
  Yes;                                    !- Output MessagePack

OS:EnergyManagementSystem:ProgramCallingManager,
  {75bb4383-e02c-4853-9b3b-970475225201}, !- Handle
  total_loads_program calling manager,    !- Name
  EndOfZoneTimestepAfterZoneReporting,    !- EnergyPlus Model Calling Point
  {a36e4a15-702b-42eb-ac29-7f8b1d4d1543}; !- Program Name 1

OS:EnergyManagementSystem:Program,
  {a36e4a15-702b-42eb-ac29-7f8b1d4d1543}, !- Handle
  total_loads_program,                    !- Name
  Set loads_htg_tot = 0,                  !- Program Line 1
  Set loads_clg_tot = 0,                  !- Program Line 2
  If htg_load_liv > 0,                    !- Program Line 3
  Set loads_htg_tot = htg_load_tot - clg_load_tot, !- Program Line 4
  ElseIf clg_load_liv > 0,                !- Program Line 5
  Set loads_clg_tot = clg_load_tot - htg_load_tot, !- Program Line 6
  EndIf;                                  !- Program Line 7

OS:EnergyManagementSystem:Sensor,
  {0a6c3533-e823-44b2-97c0-0d021ae20515}, !- Handle
  clg_load_tot,                           !- Name
  ,                                       !- Output Variable or Output Meter Index Key Name
  Cooling:EnergyTransfer;                 !- Output Variable or Output Meter Name

OS:EnergyManagementSystem:Sensor,
  {cdc04053-7f5a-4a74-a5c9-45ea15953c96}, !- Handle
  htg_load_tot,                           !- Name
  ,                                       !- Output Variable or Output Meter Index Key Name
  Heating:EnergyTransfer;                 !- Output Variable or Output Meter Name

OS:EnergyManagementSystem:Sensor,
  {b465493c-e6b2-4e50-b27e-ea2c7d7561cd}, !- Handle
  clg_load_liv,                           !- Name
  ,                                       !- Output Variable or Output Meter Index Key Name
  Cooling:EnergyTransfer:Zone:LIVING SPACE; !- Output Variable or Output Meter Name

OS:EnergyManagementSystem:Sensor,
  {272a2eb9-cd2a-4092-a1fe-e94c7d7cfb6f}, !- Handle
  htg_load_liv,                           !- Name
  ,                                       !- Output Variable or Output Meter Index Key Name
  Heating:EnergyTransfer:Zone:LIVING SPACE; !- Output Variable or Output Meter Name

OS:EnergyManagementSystem:ProgramCallingManager,
  {41b5e3e5-d9c3-4ed0-a56f-9a0b2bb148a3}, !- Handle
  unmet_hours_program calling manager,    !- Name
  EndOfZoneTimestepBeforeZoneReporting,   !- EnergyPlus Model Calling Point
  {1c86190f-517b-48e7-a2d1-76d77a658554}; !- Program Name 1

OS:EnergyManagementSystem:Program,
  {1c86190f-517b-48e7-a2d1-76d77a658554}, !- Handle
  unmet_hours_program,                    !- Name
  Set htg_unmet_hours = 0,                !- Program Line 1
  Set clg_unmet_hours = 0,                !- Program Line 2
  If (DayOfYear >= 1) && (DayOfYear <= 365), !- Program Line 3
  Set htg_unmet_hours = htg_unmet_hours + zone_htg_unmet_s, !- Program Line 4
  EndIf,                                  !- Program Line 5
  If (DayOfYear >= 1) && (DayOfYear <= 365), !- Program Line 6
  Set clg_unmet_hours = clg_unmet_hours + zone_clg_unmet_s, !- Program Line 7
  EndIf;                                  !- Program Line 8

OS:EnergyManagementSystem:Sensor,
  {d49b8074-fc05-4625-bd5a-20d8f33c43af}, !- Handle
  zone_clg_unmet_s,                       !- Name
  living space,                           !- Output Variable or Output Meter Index Key Name
  Zone Cooling Setpoint Not Met Time;     !- Output Variable or Output Meter Name

OS:EnergyManagementSystem:Sensor,
  {96291b36-ceb9-43a6-89a5-0cde51966d75}, !- Handle
  zone_htg_unmet_s,                       !- Name
  living space,                           !- Output Variable or Output Meter Index Key Name
  Zone Heating Setpoint Not Met Time;     !- Output Variable or Output Meter Name

OS:AdditionalProperties,
  {c8c31e5e-0068-478c-9e5b-aaa521f751e6}, !- Handle
  {073b31ca-3cdd-437a-b34d-90df321b0674}, !- Object Name
  hpxml_path,                             !- Feature Name 1
  String,                                 !- Feature Data Type 1
  /home/psalter/urbanTest/run/baseline_scenario/28/hpxml.xml, !- Feature Value 1
  hpxml_defaults_path,                    !- Feature Name 2
  String,                                 !- Feature Data Type 2
  /home/psalter/urbanTest/run/baseline_scenario/28/in.xml, !- Feature Value 2
  building_id,                            !- Feature Name 3
  String,                                 !- Feature Data Type 3
  ,                                       !- Feature Value 3
  emissions_scenario_names,               !- Feature Name 4
  String,                                 !- Feature Data Type 4
  ["BEopt"],                              !- Feature Value 4
  emissions_scenario_types,               !- Feature Name 5
  String,                                 !- Feature Data Type 5
  ["CO2e"],                               !- Feature Value 5
  has_heating,                            !- Feature Name 6
  Boolean,                                !- Feature Data Type 6
  true,                                   !- Feature Value 6
  has_cooling,                            !- Feature Name 7
  Boolean,                                !- Feature Data Type 7
  true,                                   !- Feature Value 7
  NumberOfConditionedStories,             !- Feature Name 8
  Integer,                                !- Feature Data Type 8
  1;                                      !- Feature Value 8

OS:Building,
  {073b31ca-3cdd-437a-b34d-90df321b0674}, !- Handle
  Building 1,                             !- Name
  ,                                       !- Building Sector Type
  ,                                       !- North Axis {deg}
  8,                                      !- Nominal Floor to Floor Height {m}
  ,                                       !- Space Type Name
  ,                                       !- Default Construction Set Name
  ,                                       !- Default Schedule Set Name
  1,                                      !- Standards Number of Stories
  1,                                      !- Standards Number of Above Ground Stories
  ,                                       !- Standards Template
  Residential,                            !- Standards Building Type
  1;                                      !- Standards Number of Living Units

OS:EnergyManagementSystem:ProgramCallingManager,
  {24607842-ea3b-44b0-8532-eb13923e4118}, !- Handle
  infil_program calling manager,          !- Name
  BeginZoneTimestepAfterInitHeatBalance,  !- EnergyPlus Model Calling Point
  {ec3d6466-723d-453b-a6ac-e4eb2ec17312}; !- Program Name 1

OS:EnergyManagementSystem:Sensor,
  {91946cb2-f8a0-4f69-b60c-eb7538ee1505}, !- Handle
  clothes_dryer_exhaust_0_sch_s,          !- Name
  clothes dryer 1,                        !- Output Variable or Output Meter Index Key Name
  Schedule Value;                         !- Output Variable or Output Meter Name

OS:Schedule:Day,
  {6e65a056-f61f-42b5-bf4c-49b602701ce5}, !- Handle
  clothes dryer allday1 1,                !- Name
  {59330b35-94fb-43e2-987e-2de1f0ac7f19}, !- Schedule Type Limits Name
  ,                                       !- Interpolate to Timestep
  1,                                      !- Hour 1
  0,                                      !- Minute 1
  0.123456790123457,                      !- Value Until Time 1
  2,                                      !- Hour 2
  0,                                      !- Minute 2
  0.0740740740740741,                     !- Value Until Time 2
  3,                                      !- Hour 3
  0,                                      !- Minute 3
  0.0493827160493827,                     !- Value Until Time 3
  4,                                      !- Hour 4
  0,                                      !- Minute 4
  0.0246913580246914,                     !- Value Until Time 4
  5,                                      !- Hour 5
  0,                                      !- Minute 5
  0.0493827160493827,                     !- Value Until Time 5
  6,                                      !- Hour 6
  0,                                      !- Minute 6
  0.0740740740740741,                     !- Value Until Time 6
  7,                                      !- Hour 7
  0,                                      !- Minute 7
  0.197530864197531,                      !- Value Until Time 7
  8,                                      !- Hour 8
  0,                                      !- Minute 8
  0.395061728395062,                      !- Value Until Time 8
  9,                                      !- Hour 9
  0,                                      !- Minute 9
  0.592592592592593,                      !- Value Until Time 9
  10,                                     !- Hour 10
  0,                                      !- Minute 10
  0.839506172839506,                      !- Value Until Time 10
  11,                                     !- Hour 11
  0,                                      !- Minute 11
  0.962962962962963,                      !- Value Until Time 11
  12,                                     !- Hour 12
  0,                                      !- Minute 12
  1,                                      !- Value Until Time 12
  13,                                     !- Hour 13
  0,                                      !- Minute 13
  0.91358024691358,                       !- Value Until Time 13
  14,                                     !- Hour 14
  0,                                      !- Minute 14
  0.827160493827161,                      !- Value Until Time 14
  15,                                     !- Hour 15
  0,                                      !- Minute 15
  0.703703703703704,                      !- Value Until Time 15
  16,                                     !- Hour 16
  0,                                      !- Minute 16
  0.753086419753086,                      !- Value Until Time 16
  17,                                     !- Hour 17
  0,                                      !- Minute 17
  0.679012345679012,                      !- Value Until Time 17
  18,                                     !- Hour 18
  0,                                      !- Minute 18
  0.666666666666667,                      !- Value Until Time 18
  20,                                     !- Hour 19
  0,                                      !- Minute 19
  0.62962962962963,                       !- Value Until Time 19
  21,                                     !- Hour 20
  0,                                      !- Minute 20
  0.641975308641975,                      !- Value Until Time 20
  22,                                     !- Hour 21
  0,                                      !- Minute 21
  0.666666666666667,                      !- Value Until Time 21
  23,                                     !- Hour 22
  0,                                      !- Minute 22
  0.54320987654321,                       !- Value Until Time 22
  24,                                     !- Hour 23
  0,                                      !- Minute 23
  0.296296296296296;                      !- Value Until Time 23

OS:Schedule:Rule,
  {f5ab2900-ff90-4ea3-9bee-835bf1901b6e}, !- Handle
  clothes dryer allday ruleset1 1,        !- Name
  {63cbb025-39a3-4c41-b8ee-aa239316c703}, !- Schedule Ruleset Name
  0,                                      !- Rule Order
  {6e65a056-f61f-42b5-bf4c-49b602701ce5}, !- Day Schedule Name
  Yes,                                    !- Apply Sunday
  Yes,                                    !- Apply Monday
  Yes,                                    !- Apply Tuesday
  Yes,                                    !- Apply Wednesday
  Yes,                                    !- Apply Thursday
  Yes,                                    !- Apply Friday
  Yes,                                    !- Apply Saturday
  DateRange,                              !- Date Specification Type
  1,                                      !- Start Month
  1,                                      !- Start Day
  12,                                     !- End Month
  31;                                     !- End Day

OS:Schedule:Day,
  {19028e26-d584-477c-95dd-a3216ef3b781}, !- Handle
  Schedule Day 16,                        !- Name
  {59330b35-94fb-43e2-987e-2de1f0ac7f19}, !- Schedule Type Limits Name
  ,                                       !- Interpolate to Timestep
  24,                                     !- Hour 1
  0,                                      !- Minute 1
  0;                                      !- Value Until Time 1

OS:Schedule:Ruleset,
  {63cbb025-39a3-4c41-b8ee-aa239316c703}, !- Handle
  clothes dryer 1,                        !- Name
  {59330b35-94fb-43e2-987e-2de1f0ac7f19}, !- Schedule Type Limits Name
  {19028e26-d584-477c-95dd-a3216ef3b781}; !- Default Day Schedule Name

OS:EnergyManagementSystem:Actuator,
  {2d07f41a-556d-473a-8b94-672a200d2ae9}, !- Handle
  mech_vent_house_fan_latent_load_equip_act, !- Name
  {7e1ca786-97c7-48b8-8d13-c2f3da1a2c37}, !- Actuated Component Name
  OtherEquipment,                         !- Actuated Component Type
  Power Level;                            !- Actuated Component Control Type

OS:OtherEquipment,
  {7e1ca786-97c7-48b8-8d13-c2f3da1a2c37}, !- Handle
  mech vent house fan latent load equip,  !- Name
  {c23f78bb-761d-44b0-ac19-06c6cbbfec8a}, !- Other Equipment Definition Name
  {ecbe5b1f-7cd7-4e5c-996f-0cf810e363f4}, !- Space or SpaceType Name
  {1f0f03c2-a8aa-41ca-b589-46672278f8d1}, !- Schedule Name
  ,                                       !- Multiplier
  None,                                   !- Fuel Type
  General;                                !- End-Use Subcategory

OS:OtherEquipment:Definition,
  {c23f78bb-761d-44b0-ac19-06c6cbbfec8a}, !- Handle
  mech vent house fan latent load equip,  !- Name
  EquipmentLevel,                         !- Design Level Calculation Method
  0,                                      !- Design Level {W}
  ,                                       !- Watts per Space Floor Area {W/m2}
  ,                                       !- Watts per Person {W/Person}
  1,                                      !- Fraction Latent
  0,                                      !- Fraction Radiant
  0;                                      !- Fraction Lost

OS:EnergyManagementSystem:Actuator,
  {634ce358-69dd-4af4-b9f9-3df02f0ee83a}, !- Handle
  mech_vent_house_fan_sensible_load_equip_act, !- Name
  {687480ea-ee9b-49d2-9162-3912cff6a2d6}, !- Actuated Component Name
  OtherEquipment,                         !- Actuated Component Type
  Power Level;                            !- Actuated Component Control Type

OS:OtherEquipment,
  {687480ea-ee9b-49d2-9162-3912cff6a2d6}, !- Handle
  mech vent house fan sensible load equip, !- Name
  {af15f120-0fc8-482c-aea0-7bddf2d8a60e}, !- Other Equipment Definition Name
  {ecbe5b1f-7cd7-4e5c-996f-0cf810e363f4}, !- Space or SpaceType Name
  {1f0f03c2-a8aa-41ca-b589-46672278f8d1}, !- Schedule Name
  ,                                       !- Multiplier
  None,                                   !- Fuel Type
  General;                                !- End-Use Subcategory

OS:OtherEquipment:Definition,
  {af15f120-0fc8-482c-aea0-7bddf2d8a60e}, !- Handle
  mech vent house fan sensible load equip, !- Name
  EquipmentLevel,                         !- Design Level Calculation Method
  0,                                      !- Design Level {W}
  ,                                       !- Watts per Space Floor Area {W/m2}
  ,                                       !- Watts per Person {W/Person}
  0,                                      !- Fraction Latent
  0,                                      !- Fraction Radiant
  0;                                      !- Fraction Lost

OS:EnergyManagementSystem:Program,
  {ec3d6466-723d-453b-a6ac-e4eb2ec17312}, !- Handle
  infil_program,                          !- Name
  Set p_m = 0.14,                         !- Program Line 1
  Set p_s = 0.22,                         !- Program Line 2
  Set s_m = 270,                          !- Program Line 3
  Set s_s = 370,                          !- Program Line 4
  Set z_m = 9.99744,                      !- Program Line 5
  Set z_s = 2.4384,                       !- Program Line 6
  Set f_t = (((s_m/z_m)^p_m)*((z_s/s_s)^p_s)), !- Program Line 7
  Set Tdiff = airflow_tin_s-airflow_tt_s, !- Program Line 8
  Set dT = @Abs Tdiff,                    !- Program Line 9
  Set c = 0.0937,                         !- Program Line 10
  Set Cs = 0.0498,                        !- Program Line 11
  Set Cw = 0.143,                         !- Program Line 12
  Set n = 0.65,                           !- Program Line 13
  Set sft = (f_t*0.5),                    !- Program Line 14
  Set temp1 = ((c*Cw)*((sft*site_vw_s)^(2*n)))^2, !- Program Line 15
  Set Qinf = (((c*Cs*(dT^n))^2)+temp1)^0.5, !- Program Line 16
  Set Qinf = (@Max Qinf 0),               !- Program Line 17
  Set mech_vent_house_fan_sensible_load_equip_act = 0.0, !- Program Line 18
  Set mech_vent_house_fan_latent_load_equip_act = 0.0, !- Program Line 19
  Set OASupInPb = out_pb_s,               !- Program Line 20
  Set OASupInTemp = airflow_tt_s,         !- Program Line 21
  Set OASupInW = out_wt_s,                !- Program Line 22
  Set OASupRho = (@RhoAirFnPbTdbW OASupInPb OASupInTemp OASupInW), !- Program Line 23
  Set OASupCp = (@CpAirFnW OASupInW),     !- Program Line 24
  Set OASupInEnth = (@HFnTdbW OASupInTemp OASupInW), !- Program Line 25
  Set ZoneTemp = airflow_tin_s,           !- Program Line 26
  Set ZoneW = airflow_win_s,              !- Program Line 27
  Set ZoneCp = (@CpAirFnW ZoneW),         !- Program Line 28
  Set ZoneAirEnth = (@HFnTdbW ZoneTemp ZoneW), !- Program Line 29
  Set mech_vent_house_fan_cfis_act = 0.0, !- Program Line 30
  Set QWHV_cfis_sup = 0.0,                !- Program Line 31
  Set QWHV_cfis_suppl_sup = 0.0,          !- Program Line 32
  Set QWHV_cfis_suppl_exh = 0.0,          !- Program Line 33
  Set Qrange = 0,                         !- Program Line 34
  Set Qbath = 0,                          !- Program Line 35
  Set Qdryer = 0,                         !- Program Line 36
  Set Qdryer = Qdryer + 0.00383 * clothes_dryer_exhaust_0_sch_s, !- Program Line 37
  Set QWHV_sup = 0.0,                     !- Program Line 38
  Set QWHV_exh = 0.0,                     !- Program Line 39
  Set Qexhaust = Qrange + Qbath + Qdryer + QWHV_exh + QWHV_cfis_suppl_exh, !- Program Line 40
  Set Qsupply = QWHV_sup + QWHV_cfis_sup + QWHV_cfis_suppl_sup, !- Program Line 41
  Set Qfan = (@Max Qexhaust Qsupply),     !- Program Line 42
  If Qfan > 0,                            !- Program Line 43
  Set Qavg = ((Qexhaust + Qsupply) / 2.0), !- Program Line 44
  If ((@Abs (Qexhaust - Qavg)) / Qavg) <= 0.1, !- Program Line 45
  Set phi = 1,                            !- Program Line 46
  Else,                                   !- Program Line 47
  Set phi = (Qinf / (Qinf + Qfan)),       !- Program Line 48
  EndIf,                                  !- Program Line 49
  Set Qinf_adj = phi * Qinf,              !- Program Line 50
  Else,                                   !- Program Line 51
  Set Qinf_adj = Qinf,                    !- Program Line 52
  EndIf,                                  !- Program Line 53
  Set infil_flow_act = Qinf_adj,          !- Program Line 54
  Set Qload = Qfan,                       !- Program Line 55
  Set Effectiveness_Sens = 0.0,           !- Program Line 56
  Set Effectiveness_Lat = 0.0,            !- Program Line 57
  Set Fan_MFR = Qload * OASupRho,         !- Program Line 58
  Set ZoneInEnth = OASupInEnth,           !- Program Line 59
  Set ZoneInTemp = OASupInTemp,           !- Program Line 60
  Set FanTotalToLv = Fan_MFR * (ZoneInEnth - ZoneAirEnth), !- Program Line 61
  Set FanSensToLv = Fan_MFR * ZoneCp * (ZoneInTemp - ZoneTemp), !- Program Line 62
  Set FanLatToLv = FanTotalToLv - FanSensToLv, !- Program Line 63
  Set mech_vent_house_fan_sensible_load_equip_act = mech_vent_house_fan_sensible_load_equip_act + FanSensToLv, !- Program Line 64
  Set mech_vent_house_fan_latent_load_equip_act = mech_vent_house_fan_latent_load_equip_act + FanLatToLv; !- Program Line 65

OS:EnergyManagementSystem:Actuator,
  {3c7ab5d1-83d6-4945-aa5c-574c4bd9a5a1}, !- Handle
  infil_flow_act,                         !- Name
  {f36a1c92-ef10-40d5-97c1-046e0a4f97f8}, !- Actuated Component Name
  Zone Infiltration,                      !- Actuated Component Type
  Air Exchange Flow Rate;                 !- Actuated Component Control Type

OS:SpaceInfiltration:DesignFlowRate,
  {f36a1c92-ef10-40d5-97c1-046e0a4f97f8}, !- Handle
  infil flow,                             !- Name
  {ecbe5b1f-7cd7-4e5c-996f-0cf810e363f4}, !- Space or SpaceType Name
  {1f0f03c2-a8aa-41ca-b589-46672278f8d1}, !- Schedule Name
  Flow/Space,                             !- Design Flow Rate Calculation Method
  0,                                      !- Design Flow Rate {m3/s}
  ,                                       !- Flow per Space Floor Area {m3/s-m2}
  ,                                       !- Flow per Exterior Surface Area {m3/s-m2}
  ,                                       !- Air Changes per Hour {1/hr}
  ,                                       !- Constant Term Coefficient
  ,                                       !- Temperature Term Coefficient
  ,                                       !- Velocity Term Coefficient
  ;                                       !- Velocity Squared Term Coefficient

OS:EnergyManagementSystem:Actuator,
  {5a37ef51-9aec-4cfe-b84a-960c5918f177}, !- Handle
  mech_vent_house_fan_cfis_act,           !- Name
  {b500a254-3289-4591-8a86-d39a6eab132a}, !- Actuated Component Name
  ElectricEquipment,                      !- Actuated Component Type
  Electricity Rate;                       !- Actuated Component Control Type

OS:ElectricEquipment,
  {b500a254-3289-4591-8a86-d39a6eab132a}, !- Handle
  mech vent house fan cfis,               !- Name
  {e5da1fdb-cb5c-4b9a-8d46-96870cf51be0}, !- Electric Equipment Definition Name
  {ecbe5b1f-7cd7-4e5c-996f-0cf810e363f4}, !- Space or SpaceType Name
  {1f0f03c2-a8aa-41ca-b589-46672278f8d1}, !- Schedule Name
  ,                                       !- Multiplier
  mech vent;                              !- End-Use Subcategory

OS:ElectricEquipment:Definition,
  {e5da1fdb-cb5c-4b9a-8d46-96870cf51be0}, !- Handle
  mech vent house fan cfis,               !- Name
  EquipmentLevel,                         !- Design Level Calculation Method
  0,                                      !- Design Level {W}
  ,                                       !- Watts per Space Floor Area {W/m2}
  ,                                       !- Watts per Person {W/person}
  0,                                      !- Fraction Latent
  0,                                      !- Fraction Radiant
  0;                                      !- Fraction Lost

OS:ElectricEquipment,
  {71ab9e21-62e6-4ad1-aa31-b4e08e3b9ba0}, !- Handle
  mech vent house fan,                    !- Name
  {4a18c76a-ecd0-4e2a-b9d9-ebc241407040}, !- Electric Equipment Definition Name
  {ecbe5b1f-7cd7-4e5c-996f-0cf810e363f4}, !- Space or SpaceType Name
  {1f0f03c2-a8aa-41ca-b589-46672278f8d1}, !- Schedule Name
  ,                                       !- Multiplier
  mech vent;                              !- End-Use Subcategory

OS:ElectricEquipment:Definition,
  {4a18c76a-ecd0-4e2a-b9d9-ebc241407040}, !- Handle
  mech vent house fan,                    !- Name
  EquipmentLevel,                         !- Design Level Calculation Method
  0,                                      !- Design Level {W}
  ,                                       !- Watts per Space Floor Area {W/m2}
  ,                                       !- Watts per Person {W/person}
  0,                                      !- Fraction Latent
  0,                                      !- Fraction Radiant
  1;                                      !- Fraction Lost

OS:SpaceInfiltration:EffectiveLeakageArea,
  {425e3b73-1cc6-435e-a113-e37aa42afcf7}, !- Handle
  infil|attic - vented 1,                 !- Name
  {6c5044cf-a9a4-4110-87eb-559cd93d4c2d}, !- Space or SpaceType Name
  {1f0f03c2-a8aa-41ca-b589-46672278f8d1}, !- Schedule Name
  3563.909259264,                         !- Effective Air Leakage Area {cm2}
  0.000294638244459765,                   !- Stack Coefficient
  3.22252664891258e-05;                   !- Wind Coefficient
