
OS:Version,
  {08e44826-ba01-4127-bf0d-a094b7c2097f}, !- Handle
  3.5.1;                                  !- Version Identifier

OS:Facility,
  {a28f86bd-f104-4523-b1af-a6ceeab0d83f}; !- Handle

OS:LifeCycleCost:Parameters,
  {fa55cd31-c35a-4f52-9130-1d93a9316eda}, !- Handle
  ,                                       !- Analysis Type
  ,                                       !- Discounting Convention
  ,                                       !- Inflation Approach
  ,                                       !- Real Discount Rate
  ,                                       !- Nominal Discount Rate
  ,                                       !- Inflation
  ,                                       !- Base Date Month
  ,                                       !- Base Date Year
  ,                                       !- Service Date Month
  ,                                       !- Service Date Year
  ;                                       !- Length of Study Period in Years

OS:SpaceType,
  {84331f66-97aa-462c-83a5-b99b20941b0b}, !- Handle
  Space Type 4,                           !- Name
  ,                                       !- Default Construction Set Name
  ,                                       !- Default Schedule Set Name
  ,                                       !- Group Rendering Name
  ,                                       !- Design Specification Outdoor Air Object Name
  ,                                       !- Standards Template
  Single-Family Detached,                 !- Standards Building Type
  living space 1;                         !- Standards Space Type

OS:SpaceType,
  {acf071dd-02db-44e1-80d7-7ba2d2f51571}, !- Handle
  Space Type 3,                           !- Name
  ,                                       !- Default Construction Set Name
  ,                                       !- Default Schedule Set Name
  ,                                       !- Group Rendering Name
  ,                                       !- Design Specification Outdoor Air Object Name
  ,                                       !- Standards Template
  ,                                       !- Standards Building Type
  furnace airloop ret air space;          !- Standards Space Type

OS:SpaceType,
  {dbbf0884-1790-448f-9dd7-5d32f7327a6a}, !- Handle
  Space Type 2,                           !- Name
  ,                                       !- Default Construction Set Name
  ,                                       !- Default Schedule Set Name
  ,                                       !- Group Rendering Name
  ,                                       !- Design Specification Outdoor Air Object Name
  ,                                       !- Standards Template
  ,                                       !- Standards Building Type
  attic - vented 1;                       !- Standards Space Type

OS:SpaceType,
  {c69edeec-740d-4486-8bdd-f953a6ca4413}, !- Handle
  Space Type 1,                           !- Name
  ,                                       !- Default Construction Set Name
  ,                                       !- Default Schedule Set Name
  ,                                       !- Group Rendering Name
  ,                                       !- Design Specification Outdoor Air Object Name
  ,                                       !- Standards Template
  ,                                       !- Standards Building Type
  crawlspace - unvented 1;                !- Standards Space Type

OS:OutputControl:Files,
  {04c92115-cb8e-435a-87de-a9a9859f015a}, !- Handle
  No,                                     !- Output CSV
  Yes,                                    !- Output MTR
  Yes,                                    !- Output ESO
  Yes,                                    !- Output EIO
  Yes,                                    !- Output Tabular
  Yes,                                    !- Output SQLite
  Yes,                                    !- Output JSON
  Yes,                                    !- Output AUDIT
  Yes,                                    !- Output Zone Sizing
  Yes,                                    !- Output System Sizing
  Yes,                                    !- Output DXF
  Yes,                                    !- Output BND
  Yes,                                    !- Output RDD
  Yes,                                    !- Output MDD
  Yes,                                    !- Output MTD
  Yes,                                    !- Output SHD
  Yes,                                    !- Output DFS
  Yes,                                    !- Output GLHE
  Yes,                                    !- Output DelightIn
  Yes,                                    !- Output DelightELdmp
  Yes,                                    !- Output DelightDFdmp
  Yes,                                    !- Output EDD
  Yes,                                    !- Output DBG
  Yes,                                    !- Output PerfLog
  Yes,                                    !- Output SLN
  Yes,                                    !- Output SCI
  Yes,                                    !- Output WRL
  Yes,                                    !- Output Screen
  Yes,                                    !- Output ExtShd
  Yes;                                    !- Output Tarcog

OS:Output:JSON,
  {14814852-220a-4004-890a-a215e6ef1bc1}, !- Handle
  TimeSeriesAndTabular,                   !- Option Type
  No,                                     !- Output JSON
  No,                                     !- Output CBOR
  Yes;                                    !- Output MessagePack

OS:EnergyManagementSystem:ProgramCallingManager,
  {7b910e2a-d250-45b4-a589-d46a5abedc34}, !- Handle
  total_loads_program calling manager,    !- Name
  EndOfZoneTimestepAfterZoneReporting,    !- EnergyPlus Model Calling Point
  {b87be569-9685-48a2-af10-24e08367d02f}; !- Program Name 1

OS:EnergyManagementSystem:Program,
  {b87be569-9685-48a2-af10-24e08367d02f}, !- Handle
  total_loads_program,                    !- Name
  Set loads_htg_tot = 0,                  !- Program Line 1
  Set loads_clg_tot = 0,                  !- Program Line 2
  If htg_load_liv > 0,                    !- Program Line 3
  Set loads_htg_tot = htg_load_tot - clg_load_tot, !- Program Line 4
  ElseIf clg_load_liv > 0,                !- Program Line 5
  Set loads_clg_tot = clg_load_tot - htg_load_tot, !- Program Line 6
  EndIf;                                  !- Program Line 7

OS:EnergyManagementSystem:Sensor,
  {5e637238-7b3b-488b-bac5-9b9637dd8293}, !- Handle
  clg_load_tot,                           !- Name
  ,                                       !- Output Variable or Output Meter Index Key Name
  Cooling:EnergyTransfer;                 !- Output Variable or Output Meter Name

OS:EnergyManagementSystem:Sensor,
  {401240c2-f079-4e4e-bea9-debc6f396036}, !- Handle
  htg_load_tot,                           !- Name
  ,                                       !- Output Variable or Output Meter Index Key Name
  Heating:EnergyTransfer;                 !- Output Variable or Output Meter Name

OS:EnergyManagementSystem:Sensor,
  {3ef209b7-c10c-4b27-8986-64a3c87687ac}, !- Handle
  clg_load_liv,                           !- Name
  ,                                       !- Output Variable or Output Meter Index Key Name
  Cooling:EnergyTransfer:Zone:LIVING SPACE; !- Output Variable or Output Meter Name

OS:EnergyManagementSystem:Sensor,
  {50e65ec6-2912-4a32-86ab-ef5858e1be94}, !- Handle
  htg_load_liv,                           !- Name
  ,                                       !- Output Variable or Output Meter Index Key Name
  Heating:EnergyTransfer:Zone:LIVING SPACE; !- Output Variable or Output Meter Name

OS:EnergyManagementSystem:ProgramCallingManager,
  {fe837664-0132-4b9a-8f31-d09d46470f78}, !- Handle
  unmet_hours_program calling manager,    !- Name
  EndOfZoneTimestepBeforeZoneReporting,   !- EnergyPlus Model Calling Point
  {82f5eb8a-84fc-4e82-a7ae-3c2d3d9e5db1}; !- Program Name 1

OS:EnergyManagementSystem:Program,
  {82f5eb8a-84fc-4e82-a7ae-3c2d3d9e5db1}, !- Handle
  unmet_hours_program,                    !- Name
  Set htg_unmet_hours = 0,                !- Program Line 1
  Set clg_unmet_hours = 0,                !- Program Line 2
  If (DayOfYear >= 1) && (DayOfYear <= 365), !- Program Line 3
  Set htg_unmet_hours = htg_unmet_hours + zone_htg_unmet_s, !- Program Line 4
  EndIf;                                  !- Program Line 5

OS:EnergyManagementSystem:Sensor,
  {4466adda-0c52-4419-9d49-74df3ff4fe19}, !- Handle
  zone_clg_unmet_s,                       !- Name
  living space,                           !- Output Variable or Output Meter Index Key Name
  Zone Cooling Setpoint Not Met Time;     !- Output Variable or Output Meter Name

OS:EnergyManagementSystem:Sensor,
  {f1fd144f-1670-4796-9290-3d907061f7e1}, !- Handle
  zone_htg_unmet_s,                       !- Name
  living space,                           !- Output Variable or Output Meter Index Key Name
  Zone Heating Setpoint Not Met Time;     !- Output Variable or Output Meter Name

OS:AdditionalProperties,
  {dd3bf43e-ef33-4446-8501-6ac166dc6f41}, !- Handle
  {e9676819-1a07-4152-ba55-1cc100a76f1d}, !- Object Name
  hpxml_path,                             !- Feature Name 1
  String,                                 !- Feature Data Type 1
  /home/psalter/urbanTest/run/baseline_scenario/7/hpxml.xml, !- Feature Value 1
  hpxml_defaults_path,                    !- Feature Name 2
  String,                                 !- Feature Data Type 2
  /home/psalter/urbanTest/run/baseline_scenario/7/in.xml, !- Feature Value 2
  building_id,                            !- Feature Name 3
  String,                                 !- Feature Data Type 3
  ,                                       !- Feature Value 3
  emissions_scenario_names,               !- Feature Name 4
  String,                                 !- Feature Data Type 4
  ["BEopt"],                              !- Feature Value 4
  emissions_scenario_types,               !- Feature Name 5
  String,                                 !- Feature Data Type 5
  ["CO2e"],                               !- Feature Value 5
  has_heating,                            !- Feature Name 6
  Boolean,                                !- Feature Data Type 6
  true,                                   !- Feature Value 6
  has_cooling,                            !- Feature Name 7
  Boolean,                                !- Feature Data Type 7
  false,                                  !- Feature Value 7
  NumberOfConditionedStories,             !- Feature Name 8
  Integer,                                !- Feature Data Type 8
  1;                                      !- Feature Value 8

OS:Building,
  {e9676819-1a07-4152-ba55-1cc100a76f1d}, !- Handle
  Building 7,                             !- Name
  ,                                       !- Building Sector Type
  ,                                       !- North Axis {deg}
  8,                                      !- Nominal Floor to Floor Height {m}
  ,                                       !- Space Type Name
  ,                                       !- Default Construction Set Name
  ,                                       !- Default Schedule Set Name
  1,                                      !- Standards Number of Stories
  1,                                      !- Standards Number of Above Ground Stories
  ,                                       !- Standards Template
  Residential,                            !- Standards Building Type
  1;                                      !- Standards Number of Living Units

OS:EnergyManagementSystem:ProgramCallingManager,
  {c362b474-faff-4e77-8620-f64d4c223551}, !- Handle
  infil_program calling manager,          !- Name
  BeginZoneTimestepAfterInitHeatBalance,  !- EnergyPlus Model Calling Point
  {08acec26-3d25-4887-a376-23996b9e81ee}; !- Program Name 1

OS:EnergyManagementSystem:Sensor,
  {37b2bb58-dd45-4702-bd5a-c482ae068cb0}, !- Handle
  clothes_dryer_exhaust_0_sch_s,          !- Name
  clothes dryer 1,                        !- Output Variable or Output Meter Index Key Name
  Schedule Value;                         !- Output Variable or Output Meter Name

OS:Schedule:Day,
  {af7a0af6-1106-4103-8fda-733e64eb8e77}, !- Handle
  clothes dryer allday1 1,                !- Name
  {8aead38a-76e6-4de2-969f-1572060438ac}, !- Schedule Type Limits Name
  ,                                       !- Interpolate to Timestep
  1,                                      !- Hour 1
  0,                                      !- Minute 1
  0.123456790123457,                      !- Value Until Time 1
  2,                                      !- Hour 2
  0,                                      !- Minute 2
  0.0740740740740741,                     !- Value Until Time 2
  3,                                      !- Hour 3
  0,                                      !- Minute 3
  0.0493827160493827,                     !- Value Until Time 3
  4,                                      !- Hour 4
  0,                                      !- Minute 4
  0.0246913580246914,                     !- Value Until Time 4
  5,                                      !- Hour 5
  0,                                      !- Minute 5
  0.0493827160493827,                     !- Value Until Time 5
  6,                                      !- Hour 6
  0,                                      !- Minute 6
  0.0740740740740741,                     !- Value Until Time 6
  7,                                      !- Hour 7
  0,                                      !- Minute 7
  0.197530864197531,                      !- Value Until Time 7
  8,                                      !- Hour 8
  0,                                      !- Minute 8
  0.395061728395062,                      !- Value Until Time 8
  9,                                      !- Hour 9
  0,                                      !- Minute 9
  0.592592592592593,                      !- Value Until Time 9
  10,                                     !- Hour 10
  0,                                      !- Minute 10
  0.839506172839506,                      !- Value Until Time 10
  11,                                     !- Hour 11
  0,                                      !- Minute 11
  0.962962962962963,                      !- Value Until Time 11
  12,                                     !- Hour 12
  0,                                      !- Minute 12
  1,                                      !- Value Until Time 12
  13,                                     !- Hour 13
  0,                                      !- Minute 13
  0.91358024691358,                       !- Value Until Time 13
  14,                                     !- Hour 14
  0,                                      !- Minute 14
  0.827160493827161,                      !- Value Until Time 14
  15,                                     !- Hour 15
  0,                                      !- Minute 15
  0.703703703703704,                      !- Value Until Time 15
  16,                                     !- Hour 16
  0,                                      !- Minute 16
  0.753086419753086,                      !- Value Until Time 16
  17,                                     !- Hour 17
  0,                                      !- Minute 17
  0.679012345679012,                      !- Value Until Time 17
  18,                                     !- Hour 18
  0,                                      !- Minute 18
  0.666666666666667,                      !- Value Until Time 18
  20,                                     !- Hour 19
  0,                                      !- Minute 19
  0.62962962962963,                       !- Value Until Time 19
  21,                                     !- Hour 20
  0,                                      !- Minute 20
  0.641975308641975,                      !- Value Until Time 20
  22,                                     !- Hour 21
  0,                                      !- Minute 21
  0.666666666666667,                      !- Value Until Time 21
  23,                                     !- Hour 22
  0,                                      !- Minute 22
  0.54320987654321,                       !- Value Until Time 22
  24,                                     !- Hour 23
  0,                                      !- Minute 23
  0.296296296296296;                      !- Value Until Time 23

OS:Schedule:Rule,
  {4fdf98d4-6c25-4c84-8c2c-919ff6533147}, !- Handle
  clothes dryer allday ruleset1 1,        !- Name
  {145c82b0-d077-4f75-858f-a45470667192}, !- Schedule Ruleset Name
  0,                                      !- Rule Order
  {af7a0af6-1106-4103-8fda-733e64eb8e77}, !- Day Schedule Name
  Yes,                                    !- Apply Sunday
  Yes,                                    !- Apply Monday
  Yes,                                    !- Apply Tuesday
  Yes,                                    !- Apply Wednesday
  Yes,                                    !- Apply Thursday
  Yes,                                    !- Apply Friday
  Yes,                                    !- Apply Saturday
  DateRange,                              !- Date Specification Type
  1,                                      !- Start Month
  1,                                      !- Start Day
  12,                                     !- End Month
  31;                                     !- End Day

OS:Schedule:Day,
  {0588a18f-f655-4dea-ab34-5abd983e9126}, !- Handle
  Schedule Day 16,                        !- Name
  {8aead38a-76e6-4de2-969f-1572060438ac}, !- Schedule Type Limits Name
  ,                                       !- Interpolate to Timestep
  24,                                     !- Hour 1
  0,                                      !- Minute 1
  0;                                      !- Value Until Time 1

OS:Schedule:Ruleset,
  {145c82b0-d077-4f75-858f-a45470667192}, !- Handle
  clothes dryer 1,                        !- Name
  {8aead38a-76e6-4de2-969f-1572060438ac}, !- Schedule Type Limits Name
  {0588a18f-f655-4dea-ab34-5abd983e9126}; !- Default Day Schedule Name

OS:EnergyManagementSystem:Actuator,
  {1e0ed956-a737-473b-8183-370e1014fe69}, !- Handle
  mech_vent_house_fan_latent_load_equip_act, !- Name
  {d1c4c8d3-4cd1-4bfd-a1a5-3f5ba2b17078}, !- Actuated Component Name
  OtherEquipment,                         !- Actuated Component Type
  Power Level;                            !- Actuated Component Control Type

OS:OtherEquipment,
  {d1c4c8d3-4cd1-4bfd-a1a5-3f5ba2b17078}, !- Handle
  mech vent house fan latent load equip,  !- Name
  {8e902973-5eb6-4e19-97ae-1f346437484d}, !- Other Equipment Definition Name
  {20de6e04-20b0-4a79-9171-49dc05a51bdf}, !- Space or SpaceType Name
  {a2e8f5b8-2a60-471d-804e-c212f53c848c}, !- Schedule Name
  ,                                       !- Multiplier
  None,                                   !- Fuel Type
  General;                                !- End-Use Subcategory

OS:OtherEquipment:Definition,
  {8e902973-5eb6-4e19-97ae-1f346437484d}, !- Handle
  mech vent house fan latent load equip,  !- Name
  EquipmentLevel,                         !- Design Level Calculation Method
  0,                                      !- Design Level {W}
  ,                                       !- Watts per Space Floor Area {W/m2}
  ,                                       !- Watts per Person {W/Person}
  1,                                      !- Fraction Latent
  0,                                      !- Fraction Radiant
  0;                                      !- Fraction Lost

OS:EnergyManagementSystem:Actuator,
  {f14f217f-9a61-4d60-9a6e-6ee6c4af1685}, !- Handle
  mech_vent_house_fan_sensible_load_equip_act, !- Name
  {4066f72e-b8a0-4545-bc9f-1fef046543c3}, !- Actuated Component Name
  OtherEquipment,                         !- Actuated Component Type
  Power Level;                            !- Actuated Component Control Type

OS:OtherEquipment,
  {4066f72e-b8a0-4545-bc9f-1fef046543c3}, !- Handle
  mech vent house fan sensible load equip, !- Name
  {1734a3d3-4f14-4a04-aaa6-47a328af7c7f}, !- Other Equipment Definition Name
  {20de6e04-20b0-4a79-9171-49dc05a51bdf}, !- Space or SpaceType Name
  {a2e8f5b8-2a60-471d-804e-c212f53c848c}, !- Schedule Name
  ,                                       !- Multiplier
  None,                                   !- Fuel Type
  General;                                !- End-Use Subcategory

OS:OtherEquipment:Definition,
  {1734a3d3-4f14-4a04-aaa6-47a328af7c7f}, !- Handle
  mech vent house fan sensible load equip, !- Name
  EquipmentLevel,                         !- Design Level Calculation Method
  0,                                      !- Design Level {W}
  ,                                       !- Watts per Space Floor Area {W/m2}
  ,                                       !- Watts per Person {W/Person}
  0,                                      !- Fraction Latent
  0,                                      !- Fraction Radiant
  0;                                      !- Fraction Lost

OS:EnergyManagementSystem:Program,
  {08acec26-3d25-4887-a376-23996b9e81ee}, !- Handle
  infil_program,                          !- Name
  Set p_m = 0.14,                         !- Program Line 1
  Set p_s = 0.22,                         !- Program Line 2
  Set s_m = 270,                          !- Program Line 3
  Set s_s = 370,                          !- Program Line 4
  Set z_m = 9.99744,                      !- Program Line 5
  Set z_s = 2.4384,                       !- Program Line 6
  Set f_t = (((s_m/z_m)^p_m)*((z_s/s_s)^p_s)), !- Program Line 7
  Set Tdiff = airflow_tin_s-airflow_tt_s, !- Program Line 8
  Set dT = @Abs Tdiff,                    !- Program Line 9
  Set c = 0.0742,                         !- Program Line 10
  Set Cs = 0.0575,                        !- Program Line 11
  Set Cw = 0.1308,                        !- Program Line 12
  Set n = 0.65,                           !- Program Line 13
  Set sft = (f_t*0.7000000000000001),     !- Program Line 14
  Set temp1 = ((c*Cw)*((sft*site_vw_s)^(2*n)))^2, !- Program Line 15
  Set Qinf = (((c*Cs*(dT^n))^2)+temp1)^0.5, !- Program Line 16
  Set Qinf = (@Max Qinf 0),               !- Program Line 17
  Set mech_vent_house_fan_sensible_load_equip_act = 0.0, !- Program Line 18
  Set mech_vent_house_fan_latent_load_equip_act = 0.0, !- Program Line 19
  Set OASupInPb = out_pb_s,               !- Program Line 20
  Set OASupInTemp = airflow_tt_s,         !- Program Line 21
  Set OASupInW = out_wt_s,                !- Program Line 22
  Set OASupRho = (@RhoAirFnPbTdbW OASupInPb OASupInTemp OASupInW), !- Program Line 23
  Set OASupCp = (@CpAirFnW OASupInW),     !- Program Line 24
  Set OASupInEnth = (@HFnTdbW OASupInTemp OASupInW), !- Program Line 25
  Set ZoneTemp = airflow_tin_s,           !- Program Line 26
  Set ZoneW = airflow_win_s,              !- Program Line 27
  Set ZoneCp = (@CpAirFnW ZoneW),         !- Program Line 28
  Set ZoneAirEnth = (@HFnTdbW ZoneTemp ZoneW), !- Program Line 29
  Set mech_vent_house_fan_cfis_act = 0.0, !- Program Line 30
  Set QWHV_cfis_sup = 0.0,                !- Program Line 31
  Set QWHV_cfis_suppl_sup = 0.0,          !- Program Line 32
  Set QWHV_cfis_suppl_exh = 0.0,          !- Program Line 33
  Set Qrange = 0,                         !- Program Line 34
  Set Qbath = 0,                          !- Program Line 35
  Set Qdryer = 0,                         !- Program Line 36
  Set Qdryer = Qdryer + 0.00383 * clothes_dryer_exhaust_0_sch_s, !- Program Line 37
  Set QWHV_sup = 0.0,                     !- Program Line 38
  Set QWHV_exh = 0.0,                     !- Program Line 39
  Set Qexhaust = Qrange + Qbath + Qdryer + QWHV_exh + QWHV_cfis_suppl_exh, !- Program Line 40
  Set Qsupply = QWHV_sup + QWHV_cfis_sup + QWHV_cfis_suppl_sup, !- Program Line 41
  Set Qfan = (@Max Qexhaust Qsupply),     !- Program Line 42
  If Qfan > 0,                            !- Program Line 43
  Set Qavg = ((Qexhaust + Qsupply) / 2.0), !- Program Line 44
  If ((@Abs (Qexhaust - Qavg)) / Qavg) <= 0.1, !- Program Line 45
  Set phi = 1,                            !- Program Line 46
  Else,                                   !- Program Line 47
  Set phi = (Qinf / (Qinf + Qfan)),       !- Program Line 48
  EndIf,                                  !- Program Line 49
  Set Qinf_adj = phi * Qinf,              !- Program Line 50
  Else,                                   !- Program Line 51
  Set Qinf_adj = Qinf,                    !- Program Line 52
  EndIf,                                  !- Program Line 53
  Set infil_flow_act = Qinf_adj,          !- Program Line 54
  Set Qload = Qfan,                       !- Program Line 55
  Set Effectiveness_Sens = 0.0,           !- Program Line 56
  Set Effectiveness_Lat = 0.0,            !- Program Line 57
  Set Fan_MFR = Qload * OASupRho,         !- Program Line 58
  Set ZoneInEnth = OASupInEnth,           !- Program Line 59
  Set ZoneInTemp = OASupInTemp,           !- Program Line 60
  Set FanTotalToLv = Fan_MFR * (ZoneInEnth - ZoneAirEnth), !- Program Line 61
  Set FanSensToLv = Fan_MFR * ZoneCp * (ZoneInTemp - ZoneTemp), !- Program Line 62
  Set FanLatToLv = FanTotalToLv - FanSensToLv, !- Program Line 63
  Set mech_vent_house_fan_sensible_load_equip_act = mech_vent_house_fan_sensible_load_equip_act + FanSensToLv, !- Program Line 64
  Set mech_vent_house_fan_latent_load_equip_act = mech_vent_house_fan_latent_load_equip_act + FanLatToLv; !- Program Line 65

OS:EnergyManagementSystem:Actuator,
  {15d098e8-bb5b-4490-a0fc-8a41d524a65a}, !- Handle
  infil_flow_act,                         !- Name
  {98526102-f9c6-495a-99a2-75b1d96cd185}, !- Actuated Component Name
  Zone Infiltration,                      !- Actuated Component Type
  Air Exchange Flow Rate;                 !- Actuated Component Control Type

OS:SpaceInfiltration:DesignFlowRate,
  {98526102-f9c6-495a-99a2-75b1d96cd185}, !- Handle
  infil flow,                             !- Name
  {20de6e04-20b0-4a79-9171-49dc05a51bdf}, !- Space or SpaceType Name
  {a2e8f5b8-2a60-471d-804e-c212f53c848c}, !- Schedule Name
  Flow/Space,                             !- Design Flow Rate Calculation Method
  0,                                      !- Design Flow Rate {m3/s}
  ,                                       !- Flow per Space Floor Area {m3/s-m2}
  ,                                       !- Flow per Exterior Surface Area {m3/s-m2}
  ,                                       !- Air Changes per Hour {1/hr}
  ,                                       !- Constant Term Coefficient
  ,                                       !- Temperature Term Coefficient
  ,                                       !- Velocity Term Coefficient
  ;                                       !- Velocity Squared Term Coefficient

OS:EnergyManagementSystem:Actuator,
  {79e2ba31-2c0d-4c52-b298-ac587375b949}, !- Handle
  mech_vent_house_fan_cfis_act,           !- Name
  {a4391c87-8984-4d67-b0df-6f6c65d753f5}, !- Actuated Component Name
  ElectricEquipment,                      !- Actuated Component Type
  Electricity Rate;                       !- Actuated Component Control Type

OS:ElectricEquipment,
  {a4391c87-8984-4d67-b0df-6f6c65d753f5}, !- Handle
  mech vent house fan cfis,               !- Name
  {9a3136ed-5448-4271-a27d-9adb07549891}, !- Electric Equipment Definition Name
  {20de6e04-20b0-4a79-9171-49dc05a51bdf}, !- Space or SpaceType Name
  {a2e8f5b8-2a60-471d-804e-c212f53c848c}, !- Schedule Name
  ,                                       !- Multiplier
  mech vent;                              !- End-Use Subcategory

OS:ElectricEquipment:Definition,
  {9a3136ed-5448-4271-a27d-9adb07549891}, !- Handle
  mech vent house fan cfis,               !- Name
  EquipmentLevel,                         !- Design Level Calculation Method
  0,                                      !- Design Level {W}
  ,                                       !- Watts per Space Floor Area {W/m2}
  ,                                       !- Watts per Person {W/person}
  0,                                      !- Fraction Latent
  0,                                      !- Fraction Radiant
  0;                                      !- Fraction Lost

OS:ElectricEquipment,
  {94c2b5c5-746b-4505-9d43-dc24faf90fb1}, !- Handle
  mech vent house fan,                    !- Name
  {59cbd81b-611e-4afa-8610-2df9d85b78c7}, !- Electric Equipment Definition Name
  {20de6e04-20b0-4a79-9171-49dc05a51bdf}, !- Space or SpaceType Name
  {a2e8f5b8-2a60-471d-804e-c212f53c848c}, !- Schedule Name
  ,                                       !- Multiplier
  mech vent;                              !- End-Use Subcategory

OS:ElectricEquipment:Definition,
  {59cbd81b-611e-4afa-8610-2df9d85b78c7}, !- Handle
  mech vent house fan,                    !- Name
  EquipmentLevel,                         !- Design Level Calculation Method
  0,                                      !- Design Level {W}
  ,                                       !- Watts per Space Floor Area {W/m2}
  ,                                       !- Watts per Person {W/person}
  0,                                      !- Fraction Latent
  0,                                      !- Fraction Radiant
  1;                                      !- Fraction Lost

OS:SpaceInfiltration:EffectiveLeakageArea,
  {4b67c29b-95d6-476c-a4a5-cbcd3e411c16}, !- Handle
  infil|attic - vented 1,                 !- Name
  {e1e89b0e-cb8c-45b5-ab64-14022aaf9cdc}, !- Space or SpaceType Name
  {a2e8f5b8-2a60-471d-804e-c212f53c848c}, !- Schedule Name
  2227.44328704001,                       !- Effective Air Leakage Area {cm2}
  0.000268421535863064,                   !- Stack Coefficient
  3.07581801928814e-05;                   !- Wind Coefficient

OS:SpaceInfiltration:DesignFlowRate,
  {c21d5ace-7993-49c5-b565-d0410fc31976}, !- Handle
  infil|crawlspace - unvented 1,          !- Name
  {50f39711-0c58-45ce-b9b5-4a67af5af0f7}, !- Space or SpaceType Name