
OS:Version,
  {7faa831d-d83c-484e-9643-1fd99bc93fc4}, !- Handle
  3.5.1;                                  !- Version Identifier

OS:Facility,
  {46aac634-45d6-4486-9b1d-a597a283dcc1}; !- Handle

OS:LifeCycleCost:Parameters,
  {20dea770-5ec4-4368-a346-1b08dbaf353b}, !- Handle
  ,                                       !- Analysis Type
  ,                                       !- Discounting Convention
  ,                                       !- Inflation Approach
  ,                                       !- Real Discount Rate
  ,                                       !- Nominal Discount Rate
  ,                                       !- Inflation
  ,                                       !- Base Date Month
  ,                                       !- Base Date Year
  ,                                       !- Service Date Month
  ,                                       !- Service Date Year
  ;                                       !- Length of Study Period in Years

OS:SpaceType,
  {226834ba-b0c9-444f-9a34-122dabcf27a7}, !- Handle
  Space Type 4,                           !- Name
  ,                                       !- Default Construction Set Name
  ,                                       !- Default Schedule Set Name
  ,                                       !- Group Rendering Name
  ,                                       !- Design Specification Outdoor Air Object Name
  ,                                       !- Standards Template
  Single-Family Detached,                 !- Standards Building Type
  living space 1;                         !- Standards Space Type

OS:SpaceType,
  {48144b0e-0e83-4a3d-b9c4-d939af82903f}, !- Handle
  Space Type 3,                           !- Name
  ,                                       !- Default Construction Set Name
  ,                                       !- Default Schedule Set Name
  ,                                       !- Group Rendering Name
  ,                                       !- Design Specification Outdoor Air Object Name
  ,                                       !- Standards Template
  ,                                       !- Standards Building Type
  attic - vented 1;                       !- Standards Space Type

OS:SpaceType,
  {17d9fd13-8733-4031-b89d-2aca32f9ccd5}, !- Handle
  Space Type 2,                           !- Name
  ,                                       !- Default Construction Set Name
  ,                                       !- Default Schedule Set Name
  ,                                       !- Group Rendering Name
  ,                                       !- Design Specification Outdoor Air Object Name
  ,                                       !- Standards Template
  ,                                       !- Standards Building Type
  crawlspace - unvented 1;                !- Standards Space Type

OS:SpaceType,
  {9340337f-035d-4557-9797-fc8987a95bbe}, !- Handle
  Space Type 1,                           !- Name
  ,                                       !- Default Construction Set Name
  ,                                       !- Default Schedule Set Name
  ,                                       !- Group Rendering Name
  ,                                       !- Design Specification Outdoor Air Object Name
  ,                                       !- Standards Template
  ,                                       !- Standards Building Type
  furnace airloop ret air space;          !- Standards Space Type

OS:OutputControl:Files,
  {381551de-b526-4ed5-972f-8e477c7133d0}, !- Handle
  No,                                     !- Output CSV
  Yes,                                    !- Output MTR
  Yes,                                    !- Output ESO
  Yes,                                    !- Output EIO
  Yes,                                    !- Output Tabular
  Yes,                                    !- Output SQLite
  Yes,                                    !- Output JSON
  Yes,                                    !- Output AUDIT
  Yes,                                    !- Output Zone Sizing
  Yes,                                    !- Output System Sizing
  Yes,                                    !- Output DXF
  Yes,                                    !- Output BND
  Yes,                                    !- Output RDD
  Yes,                                    !- Output MDD
  Yes,                                    !- Output MTD
  Yes,                                    !- Output SHD
  Yes,                                    !- Output DFS
  Yes,                                    !- Output GLHE
  Yes,                                    !- Output DelightIn
  Yes,                                    !- Output DelightELdmp
  Yes,                                    !- Output DelightDFdmp
  Yes,                                    !- Output EDD
  Yes,                                    !- Output DBG
  Yes,                                    !- Output PerfLog
  Yes,                                    !- Output SLN
  Yes,                                    !- Output SCI
  Yes,                                    !- Output WRL
  Yes,                                    !- Output Screen
  Yes,                                    !- Output ExtShd
  Yes;                                    !- Output Tarcog

OS:Output:JSON,
  {5b42aeb9-635d-40dc-b91e-507343a155fd}, !- Handle
  TimeSeriesAndTabular,                   !- Option Type
  No,                                     !- Output JSON
  No,                                     !- Output CBOR
  Yes;                                    !- Output MessagePack

OS:EnergyManagementSystem:ProgramCallingManager,
  {5ec5bc9c-c1a2-4427-bcf3-953000a48a94}, !- Handle
  total_loads_program calling manager,    !- Name
  EndOfZoneTimestepAfterZoneReporting,    !- EnergyPlus Model Calling Point
  {ae0c298d-26e3-4561-9818-e35ad1a080b5}; !- Program Name 1

OS:EnergyManagementSystem:Program,
  {ae0c298d-26e3-4561-9818-e35ad1a080b5}, !- Handle
  total_loads_program,                    !- Name
  Set loads_htg_tot = 0,                  !- Program Line 1
  Set loads_clg_tot = 0,                  !- Program Line 2
  If htg_load_liv > 0,                    !- Program Line 3
  Set loads_htg_tot = htg_load_tot - clg_load_tot, !- Program Line 4
  ElseIf clg_load_liv > 0,                !- Program Line 5
  Set loads_clg_tot = clg_load_tot - htg_load_tot, !- Program Line 6
  EndIf;                                  !- Program Line 7

OS:EnergyManagementSystem:Sensor,
  {a335a453-2b9c-4304-83cf-751cb1519d0a}, !- Handle
  clg_load_tot,                           !- Name
  ,                                       !- Output Variable or Output Meter Index Key Name
  Cooling:EnergyTransfer;                 !- Output Variable or Output Meter Name

OS:EnergyManagementSystem:Sensor,
  {88d4f164-7d46-43e5-88bd-f8683c6dfc3e}, !- Handle
  htg_load_tot,                           !- Name
  ,                                       !- Output Variable or Output Meter Index Key Name
  Heating:EnergyTransfer;                 !- Output Variable or Output Meter Name

OS:EnergyManagementSystem:Sensor,
  {d77761ef-c5d8-4db2-b878-2530a87128cc}, !- Handle
  clg_load_liv,                           !- Name
  ,                                       !- Output Variable or Output Meter Index Key Name
  Cooling:EnergyTransfer:Zone:LIVING SPACE; !- Output Variable or Output Meter Name

OS:EnergyManagementSystem:Sensor,
  {d7ef7216-ec77-48fc-b913-c1de653b96a5}, !- Handle
  htg_load_liv,                           !- Name
  ,                                       !- Output Variable or Output Meter Index Key Name
  Heating:EnergyTransfer:Zone:LIVING SPACE; !- Output Variable or Output Meter Name

OS:EnergyManagementSystem:ProgramCallingManager,
  {6b61a625-affa-469b-87b7-1bb63ab8577c}, !- Handle
  unmet_hours_program calling manager,    !- Name
  EndOfZoneTimestepBeforeZoneReporting,   !- EnergyPlus Model Calling Point
  {1e919163-3d70-4d9b-82a7-663d46f857e0}; !- Program Name 1

OS:EnergyManagementSystem:Program,
  {1e919163-3d70-4d9b-82a7-663d46f857e0}, !- Handle
  unmet_hours_program,                    !- Name
  Set htg_unmet_hours = 0,                !- Program Line 1
  Set clg_unmet_hours = 0,                !- Program Line 2
  If (DayOfYear >= 1) && (DayOfYear <= 365), !- Program Line 3
  Set htg_unmet_hours = htg_unmet_hours + zone_htg_unmet_s, !- Program Line 4
  EndIf;                                  !- Program Line 5

OS:EnergyManagementSystem:Sensor,
  {8873fb0a-7289-491a-8b80-46f703afe676}, !- Handle
  zone_clg_unmet_s,                       !- Name
  living space,                           !- Output Variable or Output Meter Index Key Name
  Zone Cooling Setpoint Not Met Time;     !- Output Variable or Output Meter Name

OS:EnergyManagementSystem:Sensor,
  {1ee9d0ce-2738-4d42-b8c7-bcf204dc8911}, !- Handle
  zone_htg_unmet_s,                       !- Name
  living space,                           !- Output Variable or Output Meter Index Key Name
  Zone Heating Setpoint Not Met Time;     !- Output Variable or Output Meter Name

OS:AdditionalProperties,
  {be1d3319-dfcd-4cfb-9169-d9128fc469aa}, !- Handle
  {7fad6a8b-19d3-4e36-8d3a-9ebca0280e2f}, !- Object Name
  hpxml_path,                             !- Feature Name 1
  String,                                 !- Feature Data Type 1
  /home/psalter/urbanTest/run/baseline_scenario/20/hpxml.xml, !- Feature Value 1
  hpxml_defaults_path,                    !- Feature Name 2
  String,                                 !- Feature Data Type 2
  /home/psalter/urbanTest/run/baseline_scenario/20/in.xml, !- Feature Value 2
  building_id,                            !- Feature Name 3
  String,                                 !- Feature Data Type 3
  ,                                       !- Feature Value 3
  emissions_scenario_names,               !- Feature Name 4
  String,                                 !- Feature Data Type 4
  ["BEopt"],                              !- Feature Value 4
  emissions_scenario_types,               !- Feature Name 5
  String,                                 !- Feature Data Type 5
  ["CO2e"],                               !- Feature Value 5
  has_heating,                            !- Feature Name 6
  Boolean,                                !- Feature Data Type 6
  true,                                   !- Feature Value 6
  has_cooling,                            !- Feature Name 7
  Boolean,                                !- Feature Data Type 7
  false,                                  !- Feature Value 7
  NumberOfConditionedStories,             !- Feature Name 8
  Integer,                                !- Feature Data Type 8
  1;                                      !- Feature Value 8

OS:Building,
  {7fad6a8b-19d3-4e36-8d3a-9ebca0280e2f}, !- Handle
  Building 20,                             !- Name
  ,                                       !- Building Sector Type
  ,                                       !- North Axis {deg}
  8,                                      !- Nominal Floor to Floor Height {m}
  ,                                       !- Space Type Name
  ,                                       !- Default Construction Set Name
  ,                                       !- Default Schedule Set Name
  1,                                      !- Standards Number of Stories
  1,                                      !- Standards Number of Above Ground Stories
  ,                                       !- Standards Template
  Residential,                            !- Standards Building Type
  1;                                      !- Standards Number of Living Units

OS:EnergyManagementSystem:ProgramCallingManager,
  {37c85e3f-9c02-48c3-a268-33a7dff77dbc}, !- Handle
  infil_program calling manager,          !- Name
  BeginZoneTimestepAfterInitHeatBalance,  !- EnergyPlus Model Calling Point
  {6d6ab4cb-6333-4c0b-a4e9-d78a7d7132da}; !- Program Name 1

OS:EnergyManagementSystem:Sensor,
  {06e7b184-9d53-4901-996b-73c9974ed41a}, !- Handle
  clothes_dryer_exhaust_0_sch_s,          !- Name
  clothes dryer 1,                        !- Output Variable or Output Meter Index Key Name
  Schedule Value;                         !- Output Variable or Output Meter Name

OS:Schedule:Day,
  {3bd82145-9480-4153-a3cd-59a1b7691d48}, !- Handle
  clothes dryer allday1 1,                !- Name
  {3aaa9b1e-c08f-4c7c-a095-4d9a74175d52}, !- Schedule Type Limits Name
  ,                                       !- Interpolate to Timestep
  1,                                      !- Hour 1
  0,                                      !- Minute 1
  0.123456790123457,                      !- Value Until Time 1
  2,                                      !- Hour 2
  0,                                      !- Minute 2
  0.0740740740740741,                     !- Value Until Time 2
  3,                                      !- Hour 3
  0,                                      !- Minute 3
  0.0493827160493827,                     !- Value Until Time 3
  4,                                      !- Hour 4
  0,                                      !- Minute 4
  0.0246913580246914,                     !- Value Until Time 4
  5,                                      !- Hour 5
  0,                                      !- Minute 5
  0.0493827160493827,                     !- Value Until Time 5
  6,                                      !- Hour 6
  0,                                      !- Minute 6
  0.0740740740740741,                     !- Value Until Time 6
  7,                                      !- Hour 7
  0,                                      !- Minute 7
  0.197530864197531,                      !- Value Until Time 7
  8,                                      !- Hour 8
  0,                                      !- Minute 8
  0.395061728395062,                      !- Value Until Time 8
  9,                                      !- Hour 9
  0,                                      !- Minute 9
  0.592592592592593,                      !- Value Until Time 9
  10,                                     !- Hour 10
  0,                                      !- Minute 10
  0.839506172839506,                      !- Value Until Time 10
  11,                                     !- Hour 11
  0,                                      !- Minute 11
  0.962962962962963,                      !- Value Until Time 11
  12,                                     !- Hour 12
  0,                                      !- Minute 12
  1,                                      !- Value Until Time 12
  13,                                     !- Hour 13
  0,                                      !- Minute 13
  0.91358024691358,                       !- Value Until Time 13
  14,                                     !- Hour 14
  0,                                      !- Minute 14
  0.827160493827161,                      !- Value Until Time 14
  15,                                     !- Hour 15
  0,                                      !- Minute 15
  0.703703703703704,                      !- Value Until Time 15
  16,                                     !- Hour 16
  0,                                      !- Minute 16
  0.753086419753086,                      !- Value Until Time 16
  17,                                     !- Hour 17
  0,                                      !- Minute 17
  0.679012345679012,                      !- Value Until Time 17
  18,                                     !- Hour 18
  0,                                      !- Minute 18
  0.666666666666667,                      !- Value Until Time 18
  20,                                     !- Hour 19
  0,                                      !- Minute 19
  0.62962962962963,                       !- Value Until Time 19
  21,                                     !- Hour 20
  0,                                      !- Minute 20
  0.641975308641975,                      !- Value Until Time 20
  22,                                     !- Hour 21
  0,                                      !- Minute 21
  0.666666666666667,                      !- Value Until Time 21
  23,                                     !- Hour 22
  0,                                      !- Minute 22
  0.54320987654321,                       !- Value Until Time 22
  24,                                     !- Hour 23
  0,                                      !- Minute 23
  0.296296296296296;                      !- Value Until Time 23

OS:Schedule:Rule,
  {1a7bec68-9a76-4eee-90f1-d49e218c7949}, !- Handle
  clothes dryer allday ruleset1 1,        !- Name
  {7905347f-975b-42a4-9cfc-ed40ba05db73}, !- Schedule Ruleset Name
  0,                                      !- Rule Order
  {3bd82145-9480-4153-a3cd-59a1b7691d48}, !- Day Schedule Name
  Yes,                                    !- Apply Sunday
  Yes,                                    !- Apply Monday
  Yes,                                    !- Apply Tuesday
  Yes,                                    !- Apply Wednesday
  Yes,                                    !- Apply Thursday
  Yes,                                    !- Apply Friday
  Yes,                                    !- Apply Saturday
  DateRange,                              !- Date Specification Type
  1,                                      !- Start Month
  1,                                      !- Start Day
  12,                                     !- End Month
  31;                                     !- End Day

OS:Schedule:Ruleset,
  {7905347f-975b-42a4-9cfc-ed40ba05db73}, !- Handle
  clothes dryer 1,                        !- Name
  {3aaa9b1e-c08f-4c7c-a095-4d9a74175d52}, !- Schedule Type Limits Name
  {0d8b331c-9e46-4460-8678-fb7e48f07f3e}; !- Default Day Schedule Name

OS:EnergyManagementSystem:Actuator,
  {590b26c9-9a2b-4443-9684-114375155541}, !- Handle
  mech_vent_house_fan_latent_load_equip_act, !- Name
  {3d82dea5-aab7-4699-8851-2120f3e1faae}, !- Actuated Component Name
  OtherEquipment,                         !- Actuated Component Type
  Power Level;                            !- Actuated Component Control Type

OS:OtherEquipment,
  {3d82dea5-aab7-4699-8851-2120f3e1faae}, !- Handle
  mech vent house fan latent load equip,  !- Name
  {cae2fed5-ee41-4c20-a898-c374276fe480}, !- Other Equipment Definition Name
  {71b5b382-14d4-4e06-8adf-27e72496078f}, !- Space or SpaceType Name
  {c2ec1175-675c-4040-9c6c-158935df8ae2}, !- Schedule Name
  ,                                       !- Multiplier
  None,                                   !- Fuel Type
  General;                                !- End-Use Subcategory

OS:OtherEquipment:Definition,
  {cae2fed5-ee41-4c20-a898-c374276fe480}, !- Handle
  mech vent house fan latent load equip,  !- Name
  EquipmentLevel,                         !- Design Level Calculation Method
  0,                                      !- Design Level {W}
  ,                                       !- Watts per Space Floor Area {W/m2}
  ,                                       !- Watts per Person {W/Person}
  1,                                      !- Fraction Latent
  0,                                      !- Fraction Radiant
  0;                                      !- Fraction Lost

OS:EnergyManagementSystem:Actuator,
  {5a289077-8e52-4cbb-a1b5-bd6bc47b66b2}, !- Handle
  mech_vent_house_fan_sensible_load_equip_act, !- Name
  {5f6e50fb-e72a-46e9-8efc-662bac194874}, !- Actuated Component Name
  OtherEquipment,                         !- Actuated Component Type
  Power Level;                            !- Actuated Component Control Type

OS:OtherEquipment,
  {5f6e50fb-e72a-46e9-8efc-662bac194874}, !- Handle
  mech vent house fan sensible load equip, !- Name
  {e874703f-6e55-4e57-9a0e-76fbe1671a1c}, !- Other Equipment Definition Name
  {71b5b382-14d4-4e06-8adf-27e72496078f}, !- Space or SpaceType Name
  {c2ec1175-675c-4040-9c6c-158935df8ae2}, !- Schedule Name
  ,                                       !- Multiplier
  None,                                   !- Fuel Type
  General;                                !- End-Use Subcategory

OS:OtherEquipment:Definition,
  {e874703f-6e55-4e57-9a0e-76fbe1671a1c}, !- Handle
  mech vent house fan sensible load equip, !- Name
  EquipmentLevel,                         !- Design Level Calculation Method
  0,                                      !- Design Level {W}
  ,                                       !- Watts per Space Floor Area {W/m2}
  ,                                       !- Watts per Person {W/Person}
  0,                                      !- Fraction Latent
  0,                                      !- Fraction Radiant
  0;                                      !- Fraction Lost

OS:EnergyManagementSystem:Program,
  {6d6ab4cb-6333-4c0b-a4e9-d78a7d7132da}, !- Handle
  infil_program,                          !- Name
  Set p_m = 0.14,                         !- Program Line 1
  Set p_s = 0.22,                         !- Program Line 2
  Set s_m = 270,                          !- Program Line 3
  Set s_s = 370,                          !- Program Line 4
  Set z_m = 9.99744,                      !- Program Line 5
  Set z_s = 2.4384,                       !- Program Line 6
  Set f_t = (((s_m/z_m)^p_m)*((z_s/s_s)^p_s)), !- Program Line 7
  Set Tdiff = airflow_tin_s-airflow_tt_s, !- Program Line 8
  Set dT = @Abs Tdiff,                    !- Program Line 9
  Set c = 0.0643,                         !- Program Line 10
  Set Cs = 0.0575,                        !- Program Line 11
  Set Cw = 0.1308,                        !- Program Line 12
  Set n = 0.65,                           !- Program Line 13
  Set sft = (f_t*0.7000000000000001),     !- Program Line 14
  Set temp1 = ((c*Cw)*((sft*site_vw_s)^(2*n)))^2, !- Program Line 15
  Set Qinf = (((c*Cs*(dT^n))^2)+temp1)^0.5, !- Program Line 16
  Set Qinf = (@Max Qinf 0),               !- Program Line 17
  Set mech_vent_house_fan_sensible_load_equip_act = 0.0, !- Program Line 18
  Set mech_vent_house_fan_latent_load_equip_act = 0.0, !- Program Line 19
  Set OASupInPb = out_pb_s,               !- Program Line 20
  Set OASupInTemp = airflow_tt_s,         !- Program Line 21
  Set OASupInW = out_wt_s,                !- Program Line 22
  Set OASupRho = (@RhoAirFnPbTdbW OASupInPb OASupInTemp OASupInW), !- Program Line 23
  Set OASupCp = (@CpAirFnW OASupInW),     !- Program Line 24
  Set OASupInEnth = (@HFnTdbW OASupInTemp OASupInW), !- Program Line 25
  Set ZoneTemp = airflow_tin_s,           !- Program Line 26
  Set ZoneW = airflow_win_s,              !- Program Line 27
  Set ZoneCp = (@CpAirFnW ZoneW),         !- Program Line 28
  Set ZoneAirEnth = (@HFnTdbW ZoneTemp ZoneW), !- Program Line 29
  Set mech_vent_house_fan_cfis_act = 0.0, !- Program Line 30
  Set QWHV_cfis_sup = 0.0,                !- Program Line 31
  Set QWHV_cfis_suppl_sup = 0.0,          !- Program Line 32
  Set QWHV_cfis_suppl_exh = 0.0,          !- Program Line 33
  Set Qrange = 0,                         !- Program Line 34
  Set Qbath = 0,                          !- Program Line 35
  Set Qdryer = 0,                         !- Program Line 36
  Set Qdryer = Qdryer + 0.00383 * clothes_dryer_exhaust_0_sch_s, !- Program Line 37
  Set QWHV_sup = 0.0,                     !- Program Line 38
  Set QWHV_exh = 0.0,                     !- Program Line 39
  Set Qexhaust = Qrange + Qbath + Qdryer + QWHV_exh + QWHV_cfis_suppl_exh, !- Program Line 40
  Set Qsupply = QWHV_sup + QWHV_cfis_sup + QWHV_cfis_suppl_sup, !- Program Line 41
  Set Qfan = (@Max Qexhaust Qsupply),     !- Program Line 42
  If Qfan > 0,                            !- Program Line 43
  Set Qavg = ((Qexhaust + Qsupply) / 2.0), !- Program Line 44
  If ((@Abs (Qexhaust - Qavg)) / Qavg) <= 0.1, !- Program Line 45
  Set phi = 1,                            !- Program Line 46
  Else,                                   !- Program Line 47
  Set phi = (Qinf / (Qinf + Qfan)),       !- Program Line 48
  EndIf,                                  !- Program Line 49
  Set Qinf_adj = phi * Qinf,              !- Program Line 50
  Else,                                   !- Program Line 51
  Set Qinf_adj = Qinf,                    !- Program Line 52
  EndIf,                                  !- Program Line 53
  Set infil_flow_act = Qinf_adj,          !- Program Line 54
  Set Qload = Qfan,                       !- Program Line 55
  Set Effectiveness_Sens = 0.0,           !- Program Line 56
  Set Effectiveness_Lat = 0.0,            !- Program Line 57
  Set Fan_MFR = Qload * OASupRho,         !- Program Line 58
  Set ZoneInEnth = OASupInEnth,           !- Program Line 59
  Set ZoneInTemp = OASupInTemp,           !- Program Line 60
  Set FanTotalToLv = Fan_MFR * (ZoneInEnth - ZoneAirEnth), !- Program Line 61
  Set FanSensToLv = Fan_MFR * ZoneCp * (ZoneInTemp - ZoneTemp), !- Program Line 62
  Set FanLatToLv = FanTotalToLv - FanSensToLv, !- Program Line 63
  Set mech_vent_house_fan_sensible_load_equip_act = mech_vent_house_fan_sensible_load_equip_act + FanSensToLv, !- Program Line 64
  Set mech_vent_house_fan_latent_load_equip_act = mech_vent_house_fan_latent_load_equip_act + FanLatToLv; !- Program Line 65

OS:EnergyManagementSystem:Actuator,
  {736fc5b4-8899-4630-b9f6-b9146106a084}, !- Handle
  infil_flow_act,                         !- Name
  {451e5c74-e65a-4e7a-9bfe-27e98ea614d7}, !- Actuated Component Name
  Zone Infiltration,                      !- Actuated Component Type
  Air Exchange Flow Rate;                 !- Actuated Component Control Type

OS:SpaceInfiltration:DesignFlowRate,
  {451e5c74-e65a-4e7a-9bfe-27e98ea614d7}, !- Handle
  infil flow,                             !- Name
  {71b5b382-14d4-4e06-8adf-27e72496078f}, !- Space or SpaceType Name
  {c2ec1175-675c-4040-9c6c-158935df8ae2}, !- Schedule Name
  Flow/Space,                             !- Design Flow Rate Calculation Method
  0,                                      !- Design Flow Rate {m3/s}
  ,                                       !- Flow per Space Floor Area {m3/s-m2}
  ,                                       !- Flow per Exterior Surface Area {m3/s-m2}
  ,                                       !- Air Changes per Hour {1/hr}
  ,                                       !- Constant Term Coefficient
  ,                                       !- Temperature Term Coefficient
  ,                                       !- Velocity Term Coefficient
  ;                                       !- Velocity Squared Term Coefficient

OS:EnergyManagementSystem:Actuator,
  {5fb7c349-8fe5-4e2b-80a7-9c7b300bd9c2}, !- Handle
  mech_vent_house_fan_cfis_act,           !- Name
  {06c542f7-6fe1-4f31-b97c-3171af65a41b}, !- Actuated Component Name
  ElectricEquipment,                      !- Actuated Component Type
  Electricity Rate;                       !- Actuated Component Control Type

OS:ElectricEquipment,
  {06c542f7-6fe1-4f31-b97c-3171af65a41b}, !- Handle
  mech vent house fan cfis,               !- Name
  {c7e767cf-d7fa-4d3f-a969-249da7df8bf4}, !- Electric Equipment Definition Name
  {71b5b382-14d4-4e06-8adf-27e72496078f}, !- Space or SpaceType Name
  {c2ec1175-675c-4040-9c6c-158935df8ae2}, !- Schedule Name
  ,                                       !- Multiplier
  mech vent;                              !- End-Use Subcategory

OS:ElectricEquipment:Definition,
  {c7e767cf-d7fa-4d3f-a969-249da7df8bf4}, !- Handle
  mech vent house fan cfis,               !- Name
  EquipmentLevel,                         !- Design Level Calculation Method
  0,                                      !- Design Level {W}
  ,                                       !- Watts per Space Floor Area {W/m2}
  ,                                       !- Watts per Person {W/person}
  0,                                      !- Fraction Latent
  0,                                      !- Fraction Radiant
  0;                                      !- Fraction Lost

OS:ElectricEquipment,
  {5d526bd4-788a-4ca6-a8e9-da1c998b753a}, !- Handle
  mech vent house fan,                    !- Name
  {331874d7-2369-4ff2-8f2f-6c11facdf727}, !- Electric Equipment Definition Name
  {71b5b382-14d4-4e06-8adf-27e72496078f}, !- Space or SpaceType Name
  {c2ec1175-675c-4040-9c6c-158935df8ae2}, !- Schedule Name
  ,                                       !- Multiplier
  mech vent;                              !- End-Use Subcategory

OS:ElectricEquipment:Definition,
  {331874d7-2369-4ff2-8f2f-6c11facdf727}, !- Handle
  mech vent house fan,                    !- Name
  EquipmentLevel,                         !- Design Level Calculation Method
  0,                                      !- Design Level {W}
  ,                                       !- Watts per Space Floor Area {W/m2}
  ,                                       !- Watts per Person {W/person}
  0,                                      !- Fraction Latent
  0,                                      !- Fraction Radiant
  1;                                      !- Fraction Lost

OS:SpaceInfiltration:EffectiveLeakageArea,
  {d7613865-e714-406e-82bc-9d54b89a1258}, !- Handle
  infil|attic - vented 1,                 !- Name
  {7ea0072b-e61e-4e29-8399-6d551516a067}, !- Space or SpaceType Name
  {c2ec1175-675c-4040-9c6c-158935df8ae2}, !- Schedule Name
  1930.450848768,                         !- Effective Air Leakage Area {cm2}
  0.000261587966313276,                   !- Stack Coefficient
  3.03641297893886e-05;                   !- Wind Coefficient

OS:SpaceInfiltration:DesignFlowRate,
  {db42322c-1f71-4c18-b379-cb774505d4ec}, !- Handle
  infil|crawlspace - unvented 1,          !- Name
  {2b6561db-d5e4-4ba7-88fd-e85644593ab5}, !- Space or SpaceType Name
  {c2ec1175-675c-4040-9c6c-158935df8ae2}, !- Schedule Name
  AirChanges/Hour,                        !- Design Flow Rate Calculation Method
  ,                                       !- Design Flow Rate {m3/s}
  ,                                       !- Flow per Space Floor Area {m3/s-m2}
  ,                                       !- Flow per Exterior Surface Area {m3/s-m2}